
 ===================================================
  XFOIL Version 6.99
  Copyright (C) 2000   Mark Drela, Harold Youngren

  This software comes with ABSOLUTELY NO WARRANTY,
    subject to the GNU General Public License.

  Caveat computor
 ===================================================

 File  xfoil.def  not found

   QUIT    Exit program

  .OPER    Direct operating point(s)
  .MDES    Complex mapping design routine
  .QDES    Surface speed design routine
  .GDES    Geometry design routine

   SAVE f  Write airfoil to labeled coordinate file
   PSAV f  Write airfoil to plain coordinate file
   ISAV f  Write airfoil to ISES coordinate file
   MSAV f  Write airfoil to MSES coordinate file
   REVE    Reverse written-airfoil node ordering

   LOAD f  Read buffer airfoil from coordinate file
   NACA i  Set NACA 4,5-digit airfoil and buffer airfoil
   INTE    Set buffer airfoil by interpolating two airfoils
   NORM    Buffer airfoil normalization toggle
   XYCM rr Change CM reference location, currently  0.25000 0.00000

   BEND    Display structural properties of current airfoil

   PCOP    Set current-airfoil panel nodes directly from buffer airfoil points
   PANE    Set current-airfoil panel nodes ( 160 ) based on curvature
  .PPAR    Show/change paneling

  .PLOP    Plotting options

   WDEF f  Write  current-settings file
   RDEF f  Reread current-settings file
   NAME s  Specify new airfoil name
   NINC    Increment name version number

   Z       Zoom    | (available in all menus)
   U       Unzoom  | 

 XFOIL   c>   Max thickness =     0.060017  at x =   0.300
 Max camber    =     0.010000  at x =   0.202

 Buffer airfoil set using 331 points

 Blunt trailing edge.  Gap =  0.00126

 Paneling parameters used...
   Number of panel nodes       160
   Panel bunching parameter    1.000
   TE/LE panel density ratio   0.150
   Refined-area/LE panel density ratio    0.200
   Top    side refined area x/c limits  1.000 1.000
   Bottom side refined area x/c limits  1.000 1.000

 XFOIL   c>  
 XFOIL   c>  
 XFOIL   c>  
.OPERi   c>  
.OPERi   c>  
.OPERi   c>  
 M  =    0.0000
 Re =   1000000

.OPERv   c>  
 Polar  1 newly created for accumulation
 Airfoil archived with polar: NACA 1206                                       

Enter  polar save filename  OR  <return> for no file   s>  
 Polar save file will NOT be written

Enter  polar dump filename  OR  <return> for no file   s>  
 Polar dump file will NOT be written

 Polar accumulation enabled

.OPERva   c>   Calculating unit vorticity distributions ...
 Calculating wake trajectory ...
 Calculating source influence matrix ...

 Solving BL system ...

 Initializing BL ...
    side            1  ...
 MRCHUE: Inverse mode at  74     Hk =   4.251
 MRCHUE: Inverse mode at  75     Hk =   4.834
 MRCHUE: Inverse mode at  76     Hk =   5.348
 MRCHUE: Inverse mode at  77     Hk =   5.594
    side            2  ...
 MRCHUE: Inverse mode at   9     Hk =   5.643
 MRCHUE: Inverse mode at  10     Hk =   8.062
 MRCHUE: Inverse mode at  11     Hk =   7.580
 MRCHUE: Inverse mode at  12     Hk =   2.500
 MRCHUE: Inverse mode at  13     Hk =   2.500

 Side 1 forced transition at x/c =  1.0000   77
 Side 2  free  transition at x/c =  0.0096   11

   1   rms: 0.1996E+00   max: 0.5583E+00   D at   13  2   RLX: 0.784
       a = -5.000      CL = -0.5147
      Cm = -0.0071     CD =  0.01305   =>   CDf =  0.00483    CDp =  0.00823

 Side 1 forced transition at x/c =  1.0000   77
 Side 2  free  transition at x/c =  0.0081   11

   2   rms: 0.2979E+00   max: 0.1544E+01   D at   11  2   RLX: 0.972
       a = -5.000      CL = -0.4482
      Cm = -0.0192     CD =  0.01667   =>   CDf =  0.00481    CDp =  0.01187

 Side 1 forced transition at x/c =  1.0000   77
 Side 2  free  transition at x/c =  0.0083   11

   3   rms: 0.1276E+00   max: 0.5216E+00   D at   13  2
       a = -5.000      CL = -0.4525
      Cm = -0.0183     CD =  0.01425   =>   CDf =  0.00484    CDp =  0.00941

 Side 1 forced transition at x/c =  1.0000   77
 Side 2  free  transition at x/c =  0.0081   11

   4   rms: 0.2171E-01   max: 0.1407E+00   D at   12  2
       a = -5.000      CL = -0.4523
      Cm = -0.0185     CD =  0.01503   =>   CDf =  0.00443    CDp =  0.01060

 Side 1 forced transition at x/c =  1.0000   77
 Side 2  free  transition at x/c =  0.0081   11

   5   rms: 0.3159E-02   max: 0.1172E-01   D at   12  2
       a = -5.000      CL = -0.4523
      Cm = -0.0185     CD =  0.01503   =>   CDf =  0.00441    CDp =  0.01062

 Side 1 forced transition at x/c =  1.0000   77
 Side 2  free  transition at x/c =  0.0081   11

   6   rms: 0.2193E-04   max: 0.1423E-03   D at   13  2
       a = -5.000      CL = -0.4523
      Cm = -0.0185     CD =  0.01503   =>   CDf =  0.00440    CDp =  0.01063
 plradd ia,ip,cpol            1          76  4.05486062E-04

 Point added to stored polar  1
 Save file unspecified or not available
 Dump file unspecified or not available

.OPERva   c>  
.OPERva   c>  
.OPERva   c>   Calculating wake trajectory ...
 Calculating source influence matrix ...

 Solving BL system ...

 Side 1 forced transition at x/c =  1.0000   77
 Side 2  free  transition at x/c =  0.0081   11

   1   rms: 0.9338E-01   max: -.2657E+00   T at   11  2
       a = -4.655      CL = -0.4193
      Cm = -0.0173     CD =  0.01302   =>   CDf =  0.00440    CDp =  0.00862

 Side 1 forced transition at x/c =  1.0000   77
 Side 2  free  transition at x/c =  0.0088   11

   2   rms: 0.5575E-01   max: -.2106E+00   D at   15  2
       a = -4.655      CL = -0.4194
      Cm = -0.0172     CD =  0.01294   =>   CDf =  0.00452    CDp =  0.00842

 Side 1 forced transition at x/c =  1.0000   77
 Side 2  free  transition at x/c =  0.0087   11

   3   rms: 0.1612E-02   max: 0.1148E-01   D at   13  2
       a = -4.655      CL = -0.4193
      Cm = -0.0173     CD =  0.01309   =>   CDf =  0.00469    CDp =  0.00840

 Side 1 forced transition at x/c =  1.0000   77
 Side 2  free  transition at x/c =  0.0087   11

   4   rms: 0.1353E-04   max: 0.6244E-04   D at   12  2
       a = -4.655      CL = -0.4193
      Cm = -0.0173     CD =  0.01309   =>   CDf =  0.00469    CDp =  0.00839
 plradd ia,ip,cpol            2          76  4.05486062E-04

 Point added to stored polar  1
 Save file unspecified or not available
 Dump file unspecified or not available

.OPERva   c>  
.OPERva   c>  
.OPERva   c>   Calculating wake trajectory ...
 Calculating source influence matrix ...

 Solving BL system ...

 Side 1 forced transition at x/c =  1.0000   77
 Side 2  free  transition at x/c =  0.0087   11

   1   rms: 0.9827E-01   max: -.2644E+00   D at   15  2
       a = -4.310      CL = -0.3861
      Cm = -0.0161     CD =  0.01127   =>   CDf =  0.00469    CDp =  0.00657

 Side 1 forced transition at x/c =  1.0000   77
 Side 2  free  transition at x/c =  0.0092   11

   2   rms: 0.5231E-02   max: -.2250E-01   D at   14  2
       a = -4.310      CL = -0.3859
      Cm = -0.0161     CD =  0.01154   =>   CDf =  0.00490    CDp =  0.00664

 Side 1 forced transition at x/c =  1.0000   77
 Side 2  free  transition at x/c =  0.0092   11

   3   rms: 0.1277E-03   max: 0.5264E-03   D at   13  2
       a = -4.310      CL = -0.3859
      Cm = -0.0161     CD =  0.01154   =>   CDf =  0.00491    CDp =  0.00663

 Side 1 forced transition at x/c =  1.0000   77
 Side 2  free  transition at x/c =  0.0092   11

   4   rms: 0.8902E-06   max: -.7059E-05   C at   77  1
       a = -4.310      CL = -0.3859
      Cm = -0.0161     CD =  0.01154   =>   CDf =  0.00491    CDp =  0.00663
 plradd ia,ip,cpol            3          76  4.05486062E-04

 Point added to stored polar  1
 Save file unspecified or not available
 Dump file unspecified or not available

.OPERva   c>  
.OPERva   c>  
.OPERva   c>   Calculating wake trajectory ...
 Calculating source influence matrix ...

 Solving BL system ...

 Side 1 forced transition at x/c =  1.0000   77
 Side 2  free  transition at x/c =  0.0092   11

   1   rms: 0.7000E-01   max: -.2881E+00   T at   11  2
       a = -3.966      CL = -0.3519
      Cm = -0.0151     CD =  0.01065   =>   CDf =  0.00491    CDp =  0.00574

 Side 1 forced transition at x/c =  1.0000   77
 Side 2  free  transition at x/c =  0.0098   11

   2   rms: 0.1090E+00   max: 0.5221E+00   D at   13  2
       a = -3.966      CL = -0.3514
      Cm = -0.0152     CD =  0.01097   =>   CDf =  0.00516    CDp =  0.00581

 Side 1 forced transition at x/c =  1.0000   77
 Side 2  free  transition at x/c =  0.0099   11

   3   rms: 0.1075E-01   max: 0.5651E-01   D at   11  2
       a = -3.966      CL = -0.3514
      Cm = -0.0152     CD =  0.01131   =>   CDf =  0.00498    CDp =  0.00633

 Side 1 forced transition at x/c =  1.0000   77
 Side 2  free  transition at x/c =  0.0099   11

   4   rms: 0.1250E-02   max: 0.5016E-02   D at   13  2
       a = -3.966      CL = -0.3514
      Cm = -0.0152     CD =  0.01131   =>   CDf =  0.00497    CDp =  0.00634

 Side 1 forced transition at x/c =  1.0000   77
 Side 2  free  transition at x/c =  0.0099   11

   5   rms: 0.2374E-04   max: 0.8950E-04   D at   11  2
       a = -3.966      CL = -0.3514
      Cm = -0.0152     CD =  0.01131   =>   CDf =  0.00497    CDp =  0.00634
 plradd ia,ip,cpol            4          76  4.05486062E-04

 Point added to stored polar  1
 Save file unspecified or not available
 Dump file unspecified or not available

.OPERva   c>  
.OPERva   c>  
.OPERva   c>   Calculating wake trajectory ...
 Calculating source influence matrix ...

 Solving BL system ...

 Side 1 forced transition at x/c =  1.0000   77
 Side 2  free  transition at x/c =  0.0099   11

   1   rms: 0.9257E-01   max: -.7094E+00   T at   11  2   RLX: 0.705
       a = -3.621      CL = -0.3264
      Cm = -0.0147     CD =  0.01187   =>   CDf =  0.00505    CDp =  0.00682

 Side 1 forced transition at x/c =  1.0000   78
 Side 2  free  transition at x/c =  0.0100   11

   2   rms: 0.8398E-01   max: 0.6873E+00   D at   11  2
       a = -3.621      CL = -0.3195
      Cm = -0.0137     CD =  0.00896   =>   CDf =  0.00540    CDp =  0.00356

 Side 1 forced transition at x/c =  1.0000   78
 Side 2  free  transition at x/c =  0.0113   11

   3   rms: 0.7658E-02   max: 0.1312E+00   D at   11  2
       a = -3.621      CL = -0.3199
      Cm = -0.0137     CD =  0.00873   =>   CDf =  0.00529    CDp =  0.00344

 Side 1 forced transition at x/c =  1.0000   78
 Side 2  free  transition at x/c =  0.0119   11

   4   rms: 0.1289E-01   max: 0.1208E+00   D at   11  2
       a = -3.621      CL = -0.3198
      Cm = -0.0137     CD =  0.00881   =>   CDf =  0.00528    CDp =  0.00353

 Side 1 forced transition at x/c =  1.0000   78
 Side 2  free  transition at x/c =  0.0117   11

   5   rms: 0.3152E-03   max: 0.2095E-02   T at   11  2
       a = -3.621      CL = -0.3198
      Cm = -0.0137     CD =  0.00881   =>   CDf =  0.00526    CDp =  0.00355

 Side 1 forced transition at x/c =  1.0000   78
 Side 2  free  transition at x/c =  0.0117   11

   6   rms: 0.2153E-05   max: -.1436E-04   C at   78  1
       a = -3.621      CL = -0.3198
      Cm = -0.0137     CD =  0.00881   =>   CDf =  0.00526    CDp =  0.00355
 plradd ia,ip,cpol            5          77  4.05486062E-04

 Point added to stored polar  1
 Save file unspecified or not available
 Dump file unspecified or not available

.OPERva   c>  
.OPERva   c>  
.OPERva   c>   Calculating wake trajectory ...
 Calculating source influence matrix ...

 Solving BL system ...

 Side 1 forced transition at x/c =  1.0000   78
 Side 2  free  transition at x/c =  0.0117   11

   1   rms: 0.7983E-01   max: -.4616E+00   T at   11  2
       a = -3.276      CL = -0.2858
      Cm = -0.0128     CD =  0.00815   =>   CDf =  0.00526    CDp =  0.00289

 Side 1 forced transition at x/c =  1.0000   78
 Side 2  free  transition at x/c =  0.0144   11

   2   rms: 0.5872E-01   max: -.3487E+00   D at   12  2
       a = -3.276      CL = -0.2857
      Cm = -0.0128     CD =  0.00823   =>   CDf =  0.00521    CDp =  0.00302

 Side 1 forced transition at x/c =  1.0000   78
 Side 2  free  transition at x/c =  0.0139   11

   3   rms: 0.2490E-02   max: 0.3051E-01   D at   11  2
       a = -3.276      CL = -0.2856
      Cm = -0.0128     CD =  0.00834   =>   CDf =  0.00529    CDp =  0.00305

 Side 1 forced transition at x/c =  1.0000   78
 Side 2  free  transition at x/c =  0.0138   11

   4   rms: 0.5659E-04   max: 0.4324E-03   T at   11  2
       a = -3.276      CL = -0.2856
      Cm = -0.0128     CD =  0.00834   =>   CDf =  0.00529    CDp =  0.00305
 plradd ia,ip,cpol            6          77  1.47823803E-03

 Point added to stored polar  1
 Save file unspecified or not available
 Dump file unspecified or not available

.OPERva   c>  
.OPERva   c>  
.OPERva   c>   Calculating wake trajectory ...
 Calculating source influence matrix ...

 Solving BL system ...

 Side 1 forced transition at x/c =  1.0000   78
 Side 2  free  transition at x/c =  0.0138   11

   1   rms: 0.7131E-01   max: -.3292E+00   T at   11  2
       a = -2.931      CL = -0.2513
      Cm = -0.0120     CD =  0.00786   =>   CDf =  0.00529    CDp =  0.00257

 Side 1 forced transition at x/c =  1.0000   78
 Side 2  free  transition at x/c =  0.0158   11

   2   rms: 0.1043E-01   max: -.7176E-01   D at   12  2
       a = -2.931      CL = -0.2513
      Cm = -0.0120     CD =  0.00794   =>   CDf =  0.00532    CDp =  0.00262

 Side 1 forced transition at x/c =  1.0000   78
 Side 2  free  transition at x/c =  0.0157   11

   3   rms: 0.1429E-03   max: 0.1397E-02   T at   11  2
       a = -2.931      CL = -0.2513
      Cm = -0.0120     CD =  0.00795   =>   CDf =  0.00534    CDp =  0.00261

 Side 1 forced transition at x/c =  1.0000   78
 Side 2  free  transition at x/c =  0.0157   11

   4   rms: 0.1126E-05   max: -.3113E-05   D at   12  2
       a = -2.931      CL = -0.2513
      Cm = -0.0120     CD =  0.00795   =>   CDf =  0.00534    CDp =  0.00261
 plradd ia,ip,cpol            7          77  1.47823803E-03

 Point added to stored polar  1
 Save file unspecified or not available
 Dump file unspecified or not available

.OPERva   c>  
.OPERva   c>  
.OPERva   c>   Calculating wake trajectory ...
 Calculating source influence matrix ...

 Solving BL system ...

 Side 1 forced transition at x/c =  1.0000   78
 Side 2  free  transition at x/c =  0.0157   11

   1   rms: 0.6595E-01   max: -.4266E+00   T at   11  2
       a = -2.586      CL = -0.2168
      Cm = -0.0111     CD =  0.00769   =>   CDf =  0.00539    CDp =  0.00230

 Side 1  free  transition at x/c =  0.9827   78
 Side 2  free  transition at x/c =  0.0206   11

   2   rms: 0.7389E+00   max: -.1310E+02   T at    2  1   RLX: 0.038
       a = -2.586      CL = -0.2157
      Cm = -0.0105     CD =  0.00799   =>   CDf =  0.00547    CDp =  0.00252

 Side 1  free  transition at x/c =  0.9832   78
 Side 2  free  transition at x/c =  0.0207   11

   3   rms: 0.5606E-01   max: -.4743E+00   D at   79  1
       a = -2.586      CL = -0.2003
      Cm = -0.0148     CD =  0.00711   =>   CDf =  0.00546    CDp =  0.00164

 Side 1  free  transition at x/c =  0.9998   79
 Side 2  free  transition at x/c =  0.0232   11

   4   rms: 0.1619E-01   max: 0.1305E+00   D at   11  2
       a = -2.586      CL = -0.2032
      Cm = -0.0141     CD =  0.00731   =>   CDf =  0.00542    CDp =  0.00189

 Side 1  free  transition at x/c =  0.9969   79
 Side 2  free  transition at x/c =  0.0224   11

   5   rms: 0.7004E-03   max: -.9101E-02   D at   85  2
       a = -2.586      CL = -0.2031
      Cm = -0.0141     CD =  0.00732   =>   CDf =  0.00541    CDp =  0.00191

 Side 1  free  transition at x/c =  0.9969   79
 Side 2  free  transition at x/c =  0.0223   11

   6   rms: 0.5678E-05   max: -.8504E-04   D at   85  2
       a = -2.586      CL = -0.2031
      Cm = -0.0141     CD =  0.00732   =>   CDf =  0.00541    CDp =  0.00191
 plradd ia,ip,cpol            8          78  1.47823803E-03

 Point added to stored polar  1
 Save file unspecified or not available
 Dump file unspecified or not available

.OPERva   c>  
.OPERva   c>  
.OPERva   c>   Calculating wake trajectory ...
 Calculating source influence matrix ...

 Solving BL system ...

 Side 1  free  transition at x/c =  0.9969   79
 Side 2  free  transition at x/c =  0.0223   11

   1   rms: 0.9632E-01   max: -.5862E+00   T at   11  2   RLX: 0.853
       a = -2.241      CL = -0.1549
      Cm = -0.0176     CD =  0.00700   =>   CDf =  0.00541    CDp =  0.00159

 Side 1  free  transition at x/c =  0.9961   79
 Side 2  free  transition at x/c =  0.0334   12

   2   rms: 0.1952E-01   max: 0.2213E+00   C at   79  1
       a = -2.241      CL = -0.1487
      Cm = -0.0177     CD =  0.00689   =>   CDf =  0.00542    CDp =  0.00147

 Side 1  free  transition at x/c =  0.9928   78
 Side 2  free  transition at x/c =  0.0353   12

   3   rms: 0.5114E-02   max: 0.3912E-01   T at   12  2
       a = -2.241      CL = -0.1508
      Cm = -0.0172     CD =  0.00690   =>   CDf =  0.00540    CDp =  0.00150

 Side 1  free  transition at x/c =  0.9913   78
 Side 2  free  transition at x/c =  0.0344   12

   4   rms: 0.2684E-03   max: -.3066E-02   D at   79  1
       a = -2.241      CL = -0.1507
      Cm = -0.0172     CD =  0.00691   =>   CDf =  0.00541    CDp =  0.00150

 Side 1  free  transition at x/c =  0.9914   78
 Side 2  free  transition at x/c =  0.0343   12

   5   rms: 0.1983E-05   max: -.1007E-04   D at   79  1
       a = -2.241      CL = -0.1507
      Cm = -0.0172     CD =  0.00691   =>   CDf =  0.00541    CDp =  0.00150
 plradd ia,ip,cpol            9          78  1.47823803E-03

 Point added to stored polar  1
 Save file unspecified or not available
 Dump file unspecified or not available

.OPERva   c>  
.OPERva   c>  
.OPERva   c>   Calculating wake trajectory ...
 Calculating source influence matrix ...

 Solving BL system ...

 Side 1  free  transition at x/c =  0.9914   78
 Side 2  free  transition at x/c =  0.0343   12

   1   rms: 0.9603E-01   max: 0.7977E+00   D at   12  2   RLX: 0.857
       a = -1.897      CL = -0.1099
      Cm = -0.0190     CD =  0.00662   =>   CDf =  0.00541    CDp =  0.00122

 MRCHDU: Convergence failed at  13  side 2    Res =  0.5316E+01
 MRCHDU: Convergence failed at  14  side 2    Res =  0.1898E+01
 MRCHDU: Convergence failed at  15  side 2    Res =  0.3382E+01
 MRCHDU: Convergence failed at  16  side 2    Res =  0.3241E+01
 MRCHDU: Convergence failed at  17  side 2    Res =  0.2949E+01
 MRCHDU: Convergence failed at  18  side 2    Res =  0.2681E+01
 MRCHDU: Convergence failed at  19  side 2    Res =  0.2531E+01
 MRCHDU: Convergence failed at  20  side 2    Res =  0.2444E+01
 MRCHDU: Convergence failed at  21  side 2    Res =  0.1860E+01
 MRCHDU: Convergence failed at  22  side 2    Res =  0.1989E+01
 MRCHDU: Convergence failed at  23  side 2    Res =  0.2087E+01
 MRCHDU: Convergence failed at  24  side 2    Res =  0.2122E+01
 MRCHDU: Convergence failed at  25  side 2    Res =  0.2148E+01
 MRCHDU: Convergence failed at  26  side 2    Res =  0.2233E+01
 MRCHDU: Convergence failed at  27  side 2    Res =  0.2335E+01
 MRCHDU: Convergence failed at  28  side 2    Res =  0.2442E+01
 MRCHDU: Convergence failed at  29  side 2    Res =  0.2585E+01
 MRCHDU: Convergence failed at  30  side 2    Res =  0.2712E+01
 MRCHDU: Convergence failed at  31  side 2    Res =  0.2852E+01
 MRCHDU: Convergence failed at  32  side 2    Res =  0.2987E+01
 MRCHDU: Convergence failed at  33  side 2    Res =  0.3122E+01
 MRCHDU: Convergence failed at  34  side 2    Res =  0.3260E+01
 MRCHDU: Convergence failed at  35  side 2    Res =  0.3400E+01
 MRCHDU: Convergence failed at  36  side 2    Res =  0.3546E+01
 MRCHDU: Convergence failed at  37  side 2    Res =  0.3679E+01
 MRCHDU: Convergence failed at  38  side 2    Res =  0.3837E+01
 MRCHDU: Convergence failed at  39  side 2    Res =  0.3970E+01
 MRCHDU: Convergence failed at  40  side 2    Res =  0.4127E+01
 MRCHDU: Convergence failed at  41  side 2    Res =  0.4274E+01
 MRCHDU: Convergence failed at  42  side 2    Res =  0.4422E+01
 MRCHDU: Convergence failed at  43  side 2    Res =  0.4585E+01
 MRCHDU: Convergence failed at  44  side 2    Res =  0.4788E+01
 MRCHDU: Convergence failed at  45  side 2    Res =  0.4954E+01
 MRCHDU: Convergence failed at  46  side 2    Res =  0.5185E+01
 MRCHDU: Convergence failed at  47  side 2    Res =  0.5356E+01
 MRCHDU: Convergence failed at  48  side 2    Res =  0.5525E+01
 MRCHDU: Convergence failed at  49  side 2    Res =  0.5708E+01
 MRCHDU: Convergence failed at  50  side 2    Res =  0.5893E+01
 MRCHDU: Convergence failed at  51  side 2    Res =  0.6070E+01
 MRCHDU: Convergence failed at  52  side 2    Res =  0.6254E+01
 MRCHDU: Convergence failed at  53  side 2    Res =  0.6533E+01
 MRCHDU: Convergence failed at  54  side 2    Res =  0.6734E+01
 MRCHDU: Convergence failed at  55  side 2    Res =  0.6931E+01
 MRCHDU: Convergence failed at  56  side 2    Res =  0.7149E+01
 MRCHDU: Convergence failed at  57  side 2    Res =  0.7361E+01
 MRCHDU: Convergence failed at  58  side 2    Res =  0.7582E+01
 MRCHDU: Convergence failed at  59  side 2    Res =  0.7796E+01
 MRCHDU: Convergence failed at  60  side 2    Res =  0.8053E+01
 MRCHDU: Convergence failed at  61  side 2    Res =  0.8271E+01
 MRCHDU: Convergence failed at  62  side 2    Res =  0.8526E+01
 MRCHDU: Convergence failed at  63  side 2    Res =  0.8807E+01
 MRCHDU: Convergence failed at  64  side 2    Res =  0.9062E+01
 MRCHDU: Convergence failed at  65  side 2    Res =  0.9372E+01
 MRCHDU: Convergence failed at  66  side 2    Res =  0.9655E+01
 MRCHDU: Convergence failed at  67  side 2    Res =  0.9982E+01
 MRCHDU: Convergence failed at  68  side 2    Res =  0.1036E+02
 MRCHDU: Convergence failed at  69  side 2    Res =  0.1070E+02
 MRCHDU: Convergence failed at  70  side 2    Res =  0.1116E+02
 MRCHDU: Convergence failed at  71  side 2    Res =  0.1161E+02
 MRCHDU: Convergence failed at  72  side 2    Res =  0.1213E+02
 MRCHDU: Convergence failed at  73  side 2    Res =  0.1320E+02
 MRCHDU: Convergence failed at  74  side 2    Res =  0.1394E+02
 MRCHDU: Convergence failed at  75  side 2    Res =  0.1536E+02
 MRCHDU: Convergence failed at  76  side 2    Res =  0.1657E+02
 MRCHDU: Convergence failed at  77  side 2    Res =  0.1895E+02
 MRCHDU: Convergence failed at  78  side 2    Res =  0.2131E+02
 MRCHDU: Convergence failed at  79  side 2    Res =  0.2497E+02
 MRCHDU: Convergence failed at  80  side 2    Res =  0.3346E+02
 MRCHDU: Convergence failed at  81  side 2    Res =  0.5158E+02
 MRCHDU: Convergence failed at  82  side 2    Res =  0.1548E+03
 MRCHDU: Convergence failed at  83  side 2    Res =  0.9133E+01
 Side 1  free  transition at x/c =  0.9868   78
 Side 2 forced transition at x/c =  1.0000   83

   2   rms: 0.3837E+00   max: 0.5867E+00   D at   85  2   RLX: 0.660
       a = -1.897      CL = -0.3146
      Cm =  0.0446     CD =  0.00289   =>   CDf =  0.00336    CDp = -0.00047

 Side 1  free  transition at x/c =  0.9897   78
 Side 2  free  transition at x/c =  0.2245   26

   3   rms: 0.6887E+00   max: 0.1570E+02   C at   26  2   RLX: 0.096
       a = -1.897      CL = -0.2926
      Cm =  0.0366     CD =  0.00545   =>   CDf =  0.00550    CDp = -0.00005

 Side 1  free  transition at x/c =  0.9895   78
 Side 2  free  transition at x/c =  0.1939   24

   4   rms: 0.5308E+00   max: 0.1215E+02   C at   24  2   RLX: 0.123
       a = -1.897      CL = -0.2682
      Cm =  0.0294     CD =  0.00561   =>   CDf =  0.00554    CDp =  0.00007

 Side 1  free  transition at x/c =  0.9891   78
 Side 2  free  transition at x/c =  0.1678   22

   5   rms: 0.3644E+00   max: 0.8239E+01   C at   22  2   RLX: 0.182
       a = -1.897      CL = -0.2373
      Cm =  0.0203     CD =  0.00577   =>   CDf =  0.00555    CDp =  0.00022

 Side 1  free  transition at x/c =  0.9885   78
 Side 2  free  transition at x/c =  0.1404   20

   6   rms: 0.2348E+00   max: 0.5100E+01   C at   20  2   RLX: 0.294
       a = -1.897      CL = -0.1971
      Cm =  0.0084     CD =  0.00597   =>   CDf =  0.00553    CDp =  0.00044

 Side 1  free  transition at x/c =  0.9877   78
 Side 2  free  transition at x/c =  0.1130   18

   7   rms: 0.1283E+00   max: 0.2535E+01   C at   18  2   RLX: 0.592
       a = -1.897      CL = -0.1413
      Cm = -0.0081     CD =  0.00626   =>   CDf =  0.00548    CDp =  0.00078

 Side 1  free  transition at x/c =  0.9864   78
 Side 2  free  transition at x/c =  0.0868   16

   8   rms: 0.3962E-01   max: 0.5706E+00   C at   16  2
       a = -1.897      CL = -0.1033
      Cm = -0.0193     CD =  0.00649   =>   CDf =  0.00536    CDp =  0.00113

 Side 1  free  transition at x/c =  0.9855   78
 Side 2  free  transition at x/c =  0.0733   15

   9   rms: 0.2172E-02   max: -.4490E-01   D at   15  2
       a = -1.897      CL = -0.1031
      Cm = -0.0193     CD =  0.00652   =>   CDf =  0.00526    CDp =  0.00126

 Side 1  free  transition at x/c =  0.9855   78
 Side 2  free  transition at x/c =  0.0721   15

  10   rms: 0.7700E-04   max: -.1267E-02   D at   15  2
       a = -1.897      CL = -0.1031
      Cm = -0.0193     CD =  0.00652   =>   CDf =  0.00526    CDp =  0.00126
 plradd ia,ip,cpol           10          78  1.47823803E-03

 Point added to stored polar  1
 Save file unspecified or not available
 Dump file unspecified or not available

.OPERva   c>  
.OPERva   c>  
.OPERva   c>   Calculating wake trajectory ...
 Calculating source influence matrix ...

 Solving BL system ...

 Side 1  free  transition at x/c =  0.9855   78
 Side 2  free  transition at x/c =  0.0721   15

   1   rms: 0.1517E+00   max: -.2710E+01   C at   15  2   RLX: 0.185
       a = -1.552      CL = -0.0944
      Cm = -0.0197     CD =  0.00645   =>   CDf =  0.00527    CDp =  0.00119

 Side 1  free  transition at x/c =  0.9845   78
 Side 2  free  transition at x/c =  0.0809   16

   2   rms: 0.1298E+00   max: -.1681E+01   C at   16  2   RLX: 0.298
       a = -1.552      CL = -0.0828
      Cm = -0.0202     CD =  0.00635   =>   CDf =  0.00524    CDp =  0.00111

 Side 1  free  transition at x/c =  0.9830   78
 Side 2  free  transition at x/c =  0.0896   16

   3   rms: 0.4697E-01   max: -.3000E+00   T at   16  2
       a = -1.552      CL = -0.0548
      Cm = -0.0216     CD =  0.00631   =>   CDf =  0.00525    CDp =  0.00106

 Side 1  free  transition at x/c =  0.9797   78
 Side 2  free  transition at x/c =  0.1364   19

   4   rms: 0.7596E-01   max: -.1449E+01   C at   19  2   RLX: 0.345
       a = -1.552      CL = -0.0585
      Cm = -0.0216     CD =  0.00607   =>   CDf =  0.00509    CDp =  0.00098

 Side 1  free  transition at x/c =  0.9787   78
 Side 2  free  transition at x/c =  0.1449   20

   5   rms: 0.5110E-01   max: -.7017E+00   C at   20  2   RLX: 0.713
       a = -1.552      CL = -0.0587
      Cm = -0.0211     CD =  0.00601   =>   CDf =  0.00505    CDp =  0.00096

 Side 1  free  transition at x/c =  0.9774   78
 Side 2  free  transition at x/c =  0.1565   20

   6   rms: 0.1401E-01   max: -.3170E+00   C at   20  2
       a = -1.552      CL = -0.0586
      Cm = -0.0209     CD =  0.00605   =>   CDf =  0.00499    CDp =  0.00106

 Side 1  free  transition at x/c =  0.9771   78
 Side 2  free  transition at x/c =  0.1572   20

   7   rms: 0.6617E-03   max: -.9888E-02   D at   20  2
       a = -1.552      CL = -0.0586
      Cm = -0.0209     CD =  0.00606   =>   CDf =  0.00499    CDp =  0.00107

 Side 1  free  transition at x/c =  0.9771   78
 Side 2  free  transition at x/c =  0.1568   20

   8   rms: 0.1722E-04   max: -.3746E-03   C at   20  2
       a = -1.552      CL = -0.0586
      Cm = -0.0209     CD =  0.00606   =>   CDf =  0.00499    CDp =  0.00107
 plradd ia,ip,cpol           11          79  3.25127901E-03

 Point added to stored polar  1
 Save file unspecified or not available
 Dump file unspecified or not available

.OPERva   c>  
.OPERva   c>  
.OPERva   c>   Calculating wake trajectory ...
 Calculating source influence matrix ...

 Solving BL system ...

 Side 1  free  transition at x/c =  0.9771   78
 Side 2  free  transition at x/c =  0.1568   20

   1   rms: 0.3573E+00   max: -.8383E+01   C at   20  2   RLX: 0.060
       a = -1.207      CL = -0.0561
      Cm = -0.0209     CD =  0.00603   =>   CDf =  0.00499    CDp =  0.00104

 Side 1  free  transition at x/c =  0.9763   78
 Side 2  free  transition at x/c =  0.1664   21

   2   rms: 0.3797E+00   max: -.8775E+01   C at   21  2   RLX: 0.057
       a = -1.207      CL = -0.0538
      Cm = -0.0210     CD =  0.00598   =>   CDf =  0.00496    CDp =  0.00102

 Side 1  free  transition at x/c =  0.9757   78
 Side 2  free  transition at x/c =  0.1743   22

   3   rms: 0.3622E+00   max: -.7510E+01   C at   22  2   RLX: 0.067
       a = -1.207      CL = -0.0512
      Cm = -0.0211     CD =  0.00593   =>   CDf =  0.00493    CDp =  0.00099

 Side 1  free  transition at x/c =  0.9750   78
 Side 2  free  transition at x/c =  0.1841   22

   4   rms: 0.4708E+00   max: -.1099E+02   C at   22  2   RLX: 0.045
       a = -1.207      CL = -0.0494
      Cm = -0.0211     CD =  0.00591   =>   CDf =  0.00490    CDp =  0.00101

 Side 1  free  transition at x/c =  0.9746   78
 Side 2  free  transition at x/c =  0.1917   23

   5   rms: 0.4853E+00   max: -.1119E+02   C at   23  2   RLX: 0.045
       a = -1.207      CL = -0.0478
      Cm = -0.0212     CD =  0.00586   =>   CDf =  0.00487    CDp =  0.00099

 Side 1  free  transition at x/c =  0.9742   78
 Side 2  free  transition at x/c =  0.2000   24

   6   rms: 0.5188E+00   max: -.1122E+02   C at   24  2   RLX: 0.045
       a = -1.207      CL = -0.0464
      Cm = -0.0212     CD =  0.00581   =>   CDf =  0.00485    CDp =  0.00097

 Side 1  free  transition at x/c =  0.9738   78
 Side 2  free  transition at x/c =  0.2121   24

   7   rms: 0.1022E+01   max: -.2317E+02   C at   24  2   RLX: 0.022
       a = -1.207      CL = -0.0457
      Cm = -0.0213     CD =  0.00579   =>   CDf =  0.00480    CDp =  0.00098

 Side 1  free  transition at x/c =  0.9736   78
 Side 2  free  transition at x/c =  0.2192   25

   8   rms: 0.7187E+00   max: -.1662E+02   C at   25  2   RLX: 0.030
       a = -1.207      CL = -0.0448
      Cm = -0.0213     CD =  0.00575   =>   CDf =  0.00478    CDp =  0.00097

 Side 1  free  transition at x/c =  0.9734   78
 Side 2  free  transition at x/c =  0.2333   26

   9   rms: 0.1804E+01   max: -.4163E+02   C at   26  2   RLX: 0.012
       a = -1.207      CL = -0.0446
      Cm = -0.0213     CD =  0.00570   =>   CDf =  0.00473    CDp =  0.00096

 Side 1  free  transition at x/c =  0.9733   78
 Side 2  free  transition at x/c =  0.2435   27

  10   rms: 0.1657E+01   max: -.3793E+02   C at   27  2   RLX: 0.013
       a = -1.207      CL = -0.0443
      Cm = -0.0213     CD =  0.00566   =>   CDf =  0.00470    CDp =  0.00095
 VISCAL:  Convergence failed

.OPERva   c>  
.OPERva   c>  
.OPERva   c>   Calculating wake trajectory ...
 Calculating source influence matrix ...

 Solving BL system ...

 Side 1  free  transition at x/c =  0.9732   78
 Side 2  free  transition at x/c =  0.2397   26

   1   rms: 0.1160E+01   max: -.2593E+02   C at   26  2   RLX: 0.019
       a = -0.862      CL = -0.0426
      Cm = -0.0214     CD =  0.00568   =>   CDf =  0.00472    CDp =  0.00096

 Side 1  free  transition at x/c =  0.9729   78
 Side 2  free  transition at x/c =  0.2655   28

   2   rms: 0.1497E+01   max: -.3367E+02   C at   28  2   RLX: 0.015
       a = -0.862      CL = -0.0419
      Cm = -0.0214     CD =  0.00559   =>   CDf =  0.00464    CDp =  0.00095

 Side 1  free  transition at x/c =  0.9726   78
 Side 2  free  transition at x/c =  0.2758   29

   3   rms: 0.1652E+01   max: -.3734E+02   C at   29  2   RLX: 0.013
       a = -0.862      CL = -0.0411
      Cm = -0.0214     CD =  0.00554   =>   CDf =  0.00460    CDp =  0.00094

 Side 1  free  transition at x/c =  0.9724   78
 Side 2  free  transition at x/c =  0.2826   30

   4   rms: 0.1204E+01   max: -.2648E+02   C at   30  2   RLX: 0.019
       a = -0.862      CL = -0.0397
      Cm = -0.0215     CD =  0.00551   =>   CDf =  0.00458    CDp =  0.00092

 Side 1  free  transition at x/c =  0.9720   78
 Side 2  free  transition at x/c =  0.2943   30

   5   rms: 0.1407E+01   max: -.3086E+02   C at   30  2   RLX: 0.016
       a = -0.862      CL = -0.0386
      Cm = -0.0215     CD =  0.00548   =>   CDf =  0.00455    CDp =  0.00093

 Side 1  free  transition at x/c =  0.9717   78
 Side 2  free  transition at x/c =  0.3068   31

   6   rms: 0.1508E+01   max: -.3335E+02   C at   31  2   RLX: 0.015
       a = -0.862      CL = -0.0377
      Cm = -0.0216     CD =  0.00543   =>   CDf =  0.00451    CDp =  0.00093

 Side 1  free  transition at x/c =  0.9715   78
 Side 2  free  transition at x/c =  0.3183   32

   7   rms: 0.1395E+01   max: -.3102E+02   C at   32  2   RLX: 0.016
       a = -0.862      CL = -0.0368
      Cm = -0.0216     CD =  0.00539   =>   CDf =  0.00447    CDp =  0.00092

 Side 1  free  transition at x/c =  0.9712   78
 Side 2  free  transition at x/c =  0.3296   33

   8   rms: 0.1241E+01   max: -.2766E+02   C at   33  2   RLX: 0.018
       a = -0.862      CL = -0.0357
      Cm = -0.0217     CD =  0.00534   =>   CDf =  0.00443    CDp =  0.00091

 Side 1  free  transition at x/c =  0.9710   78
 Side 2  free  transition at x/c =  0.3392   34

   9   rms: 0.1081E+01   max: -.2363E+02   C at   34  2   RLX: 0.021
       a = -0.862      CL = -0.0343
      Cm = -0.0217     CD =  0.00530   =>   CDf =  0.00440    CDp =  0.00090

 Side 1  free  transition at x/c =  0.9706   78
 Side 2  free  transition at x/c =  0.3487   34

  10   rms: 0.1086E+01   max: -.2367E+02   C at   34  2   RLX: 0.021
       a = -0.862      CL = -0.0329
      Cm = -0.0218     CD =  0.00528   =>   CDf =  0.00437    CDp =  0.00090
 VISCAL:  Convergence failed

.OPERva   c>  
.OPERva   c>  
.OPERva   c>   Calculating wake trajectory ...
 Calculating source influence matrix ...

 Solving BL system ...

 Side 1  free  transition at x/c =  0.9703   78
 Side 2  free  transition at x/c =  0.3595   35

   1   rms: 0.1773E+01   max: -.3886E+02   C at   35  2   RLX: 0.013
       a = -0.517      CL = -0.0316
      Cm = -0.0218     CD =  0.00523   =>   CDf =  0.00434    CDp =  0.00090

 Side 1  free  transition at x/c =  0.9700   78
 Side 2  free  transition at x/c =  0.3705   36

   2   rms: 0.1667E+01   max: -.3653E+02   C at   36  2   RLX: 0.014
       a = -0.517      CL = -0.0303
      Cm = -0.0219     CD =  0.00519   =>   CDf =  0.00430    CDp =  0.00089

 Side 1  free  transition at x/c =  0.9697   78
 Side 2  free  transition at x/c =  0.3805   37

   3   rms: 0.1480E+01   max: -.3197E+02   C at   37  2   RLX: 0.016
       a = -0.517      CL = -0.0286
      Cm = -0.0220     CD =  0.00515   =>   CDf =  0.00427    CDp =  0.00088

 Side 1  free  transition at x/c =  0.9693   78
 Side 2  free  transition at x/c =  0.3903   37

   4   rms: 0.1405E+01   max: -.3014E+02   C at   37  2   RLX: 0.017
       a = -0.517      CL = -0.0268
      Cm = -0.0220     CD =  0.00512   =>   CDf =  0.00424    CDp =  0.00088

 Side 1  free  transition at x/c =  0.9689   78
 Side 2  free  transition at x/c =  0.4025   38

   5   rms: 0.1384E+01   max: -.2971E+02   C at   38  2   RLX: 0.017
       a = -0.517      CL = -0.0253
      Cm = -0.0221     CD =  0.00508   =>   CDf =  0.00420    CDp =  0.00088

 Side 1  free  transition at x/c =  0.9685   77
 Side 2  free  transition at x/c =  0.4147   39

   6   rms: 0.1148E+01   max: -.2468E+02   C at   39  2   RLX: 0.020
       a = -0.517      CL = -0.0237
      Cm = -0.0221     CD =  0.00503   =>   CDf =  0.00416    CDp =  0.00087

 Side 1  free  transition at x/c =  0.9677   77
 Side 2  free  transition at x/c =  0.4276   40

   7   rms: 0.1023E+01   max: -.2192E+02   C at   40  2   RLX: 0.023
       a = -0.517      CL = -0.0220
      Cm = -0.0220     CD =  0.00498   =>   CDf =  0.00412    CDp =  0.00086

 Side 1  free  transition at x/c =  0.9667   77
 Side 2  free  transition at x/c =  0.4417   41

   8   rms: 0.9457E+00   max: -.2014E+02   C at   41  2   RLX: 0.025
       a = -0.517      CL = -0.0202
      Cm = -0.0220     CD =  0.00493   =>   CDf =  0.00408    CDp =  0.00085

 Side 1  free  transition at x/c =  0.9657   77
 Side 2  free  transition at x/c =  0.4565   42

   9   rms: 0.8486E+00   max: -.1793E+02   C at   42  2   RLX: 0.028
       a = -0.517      CL = -0.0182
      Cm = -0.0220     CD =  0.00488   =>   CDf =  0.00403    CDp =  0.00085

 Side 1  free  transition at x/c =  0.9647   77
 Side 2  free  transition at x/c =  0.4724   43

  10   rms: 0.7360E+00   max: -.1535E+02   C at   43  2   RLX: 0.033
       a = -0.517      CL = -0.0158
      Cm = -0.0220     CD =  0.00482   =>   CDf =  0.00398    CDp =  0.00084
 VISCAL:  Convergence failed

.OPERva   c>  
.OPERva   c>  
.OPERva   c>   Calculating wake trajectory ...
 Calculating source influence matrix ...

 Solving BL system ...

 Side 1  free  transition at x/c =  0.9634   77
 Side 2  free  transition at x/c =  0.4916   45

   1   rms: 0.1287E+01   max: -.2703E+02   C at   45  2   RLX: 0.018
       a = -0.172      CL = -0.0141
      Cm = -0.0219     CD =  0.00474   =>   CDf =  0.00392    CDp =  0.00083

 Side 1  free  transition at x/c =  0.9624   77
 Side 2  free  transition at x/c =  0.5018   46

   2   rms: 0.1115E+01   max: -.2257E+02   C at   46  2   RLX: 0.022
       a = -0.172      CL = -0.0115
      Cm = -0.0220     CD =  0.00470   =>   CDf =  0.00389    CDp =  0.00081

 Side 1  free  transition at x/c =  0.9612   77
 Side 2  free  transition at x/c =  0.5126   46

   3   rms: 0.1110E+01   max: -.2298E+02   C at   46  2   RLX: 0.022
       a = -0.172      CL = -0.0088
      Cm = -0.0221     CD =  0.00468   =>   CDf =  0.00385    CDp =  0.00082

 Side 1  free  transition at x/c =  0.9600   77
 Side 2  free  transition at x/c =  0.5255   47

   4   rms: 0.1255E+01   max: -.2600E+02   C at   47  2   RLX: 0.019
       a = -0.172      CL = -0.0068
      Cm = -0.0221     CD =  0.00463   =>   CDf =  0.00381    CDp =  0.00082

 Side 1  free  transition at x/c =  0.9591   77
 Side 2  free  transition at x/c =  0.5385   48

   5   rms: 0.1280E+01   max: -.2647E+02   C at   48  2   RLX: 0.019
       a = -0.172      CL = -0.0048
      Cm = -0.0221     CD =  0.00458   =>   CDf =  0.00377    CDp =  0.00081

 Side 1  free  transition at x/c =  0.9581   77
 Side 2  free  transition at x/c =  0.5526   49

   6   rms: 0.1183E+01   max: -.2435E+02   C at   49  2   RLX: 0.021
       a = -0.172      CL = -0.0027
      Cm = -0.0221     CD =  0.00453   =>   CDf =  0.00372    CDp =  0.00081

 Side 1  free  transition at x/c =  0.9572   77
 Side 2  free  transition at x/c =  0.5690   50

   7   rms: 0.1011E+01   max: -.2052E+02   C at   50  2   RLX: 0.024
       a = -0.172      CL = -0.0003
      Cm = -0.0221     CD =  0.00448   =>   CDf =  0.00367    CDp =  0.00080

 Side 1  free  transition at x/c =  0.9561   77
 Side 2  free  transition at x/c =  0.5914   52

   8   rms: 0.1168E+01   max: -.2395E+02   C at   52  2   RLX: 0.021
       a = -0.172      CL =  0.0013
      Cm = -0.0219     CD =  0.00439   =>   CDf =  0.00360    CDp =  0.00079

 Side 1  free  transition at x/c =  0.9552   77
 Side 2  free  transition at x/c =  0.6072   53

   9   rms: 0.1020E+01   max: -.2069E+02   C at   53  2   RLX: 0.024
       a = -0.172      CL =  0.0036
      Cm = -0.0219     CD =  0.00434   =>   CDf =  0.00355    CDp =  0.00079

 Side 1  free  transition at x/c =  0.9543   76
 Side 2  free  transition at x/c =  0.6260   55

  10   rms: 0.1055E+01   max: -.2130E+02   C at   55  2   RLX: 0.023
       a = -0.172      CL =  0.0052
      Cm = -0.0218     CD =  0.00426   =>   CDf =  0.00349    CDp =  0.00077
 VISCAL:  Convergence failed

.OPERva   c>  
.OPERva   c>  
.OPERva   c>   Calculating wake trajectory ...
 Calculating source influence matrix ...

 Solving BL system ...

 Side 1  free  transition at x/c =  0.9528   76
 Side 2  free  transition at x/c =  0.6371   55

   1   rms: 0.1192E+01   max: -.2391E+02   C at   55  2   RLX: 0.021
       a =  0.172      CL =  0.0079
      Cm = -0.0219     CD =  0.00423   =>   CDf =  0.00346    CDp =  0.00078

 Side 1  free  transition at x/c =  0.9510   76
 Side 2  free  transition at x/c =  0.6543   57

   2   rms: 0.1322E+01   max: -.2656E+02   C at   57  2   RLX: 0.019
       a =  0.172      CL =  0.0098
      Cm = -0.0217     CD =  0.00416   =>   CDf =  0.00340    CDp =  0.00076

 Side 1  free  transition at x/c =  0.9495   76
 Side 2  free  transition at x/c =  0.6655   57

   3   rms: 0.1159E+01   max: -.2298E+02   C at   57  2   RLX: 0.022
       a =  0.172      CL =  0.0124
      Cm = -0.0218     CD =  0.00413   =>   CDf =  0.00336    CDp =  0.00077

 Side 1  free  transition at x/c =  0.9476   76
 Side 2  free  transition at x/c =  0.6805   59

   4   rms: 0.1159E+01   max: -.2294E+02   C at   59  2   RLX: 0.022
       a =  0.172      CL =  0.0147
      Cm = -0.0217     CD =  0.00406   =>   CDf =  0.00331    CDp =  0.00075

 Side 1  free  transition at x/c =  0.9459   76
 Side 2  free  transition at x/c =  0.6916   59

   5   rms: 0.1023E+01   max: -.2019E+02   C at   59  2   RLX: 0.025
       a =  0.172      CL =  0.0176
      Cm = -0.0217     CD =  0.00404   =>   CDf =  0.00328    CDp =  0.00076

 Side 1  free  transition at x/c =  0.9440   76
 Side 2  free  transition at x/c =  0.7056   60

   6   rms: 0.8751E+00   max: -.1710E+02   C at   60  2   RLX: 0.029
       a =  0.172      CL =  0.0207
      Cm = -0.0216     CD =  0.00399   =>   CDf =  0.00323    CDp =  0.00076

 Side 1  free  transition at x/c =  0.9420   76
 Side 2  free  transition at x/c =  0.7228   62

   7   rms: 0.8977E+00   max: -.1766E+02   C at   62  2   RLX: 0.028
       a =  0.172      CL =  0.0233
      Cm = -0.0214     CD =  0.00392   =>   CDf =  0.00318    CDp =  0.00074

 Side 1  free  transition at x/c =  0.9403   75
 Side 2  free  transition at x/c =  0.7339   62

   8   rms: 0.6627E+00   max: -.1279E+02   C at   62  2   RLX: 0.039
       a =  0.172      CL =  0.0273
      Cm = -0.0215     CD =  0.00390   =>   CDf =  0.00315    CDp =  0.00075

 Side 1  free  transition at x/c =  0.9369   75
 Side 2  free  transition at x/c =  0.7516   64

   9   rms: 0.6739E+00   max: -.1318E+02   C at   64  2   RLX: 0.038
       a =  0.172      CL =  0.0304
      Cm = -0.0212     CD =  0.00382   =>   CDf =  0.00309    CDp =  0.00073

 Side 1  free  transition at x/c =  0.9338   75
 Side 2  free  transition at x/c =  0.7625   65

  10   rms: 0.5618E+00   max: -.1065E+02   C at   65  2   RLX: 0.047
       a =  0.172      CL =  0.0346
      Cm = -0.0211     CD =  0.00378   =>   CDf =  0.00306    CDp =  0.00072
 VISCAL:  Convergence failed

.OPERva   c>  
.OPERva   c>  
.OPERva   c>   Calculating wake trajectory ...
 Calculating source influence matrix ...

 Solving BL system ...

 Side 1  free  transition at x/c =  0.9301   75
 Side 2  free  transition at x/c =  0.7756   65

   1   rms: 0.7452E+00   max: -.1406E+02   C at   65  2   RLX: 0.036
       a =  0.517      CL =  0.0389
      Cm = -0.0210     CD =  0.00377   =>   CDf =  0.00303    CDp =  0.00074

 Side 1  free  transition at x/c =  0.9270   74
 Side 2  free  transition at x/c =  0.7950   67

   2   rms: 0.9129E+00   max: -.1793E+02   C at   67  2   RLX: 0.028
       a =  0.517      CL =  0.0416
      Cm = -0.0207     CD =  0.00369   =>   CDf =  0.00296    CDp =  0.00072

 Side 1  free  transition at x/c =  0.9240   74
 Side 2  free  transition at x/c =  0.8093   68

   3   rms: 0.8540E+00   max: -.1665E+02   C at   68  2   RLX: 0.030
       a =  0.517      CL =  0.0445
      Cm = -0.0205     CD =  0.00364   =>   CDf =  0.00292    CDp =  0.00073

 Side 1  free  transition at x/c =  0.9208   74
 Side 2  free  transition at x/c =  0.8261   69

   4   rms: 0.6997E+00   max: -.1332E+02   C at   69  2   RLX: 0.038
       a =  0.517      CL =  0.0481
      Cm = -0.0202     CD =  0.00360   =>   CDf =  0.00287    CDp =  0.00073

 Side 1  free  transition at x/c =  0.9170   74
 Side 2  free  transition at x/c =  0.8505   71

   5   rms: 0.7366E+00   max: -.1416E+02   C at   71  2   RLX: 0.035
       a =  0.517      CL =  0.0506
      Cm = -0.0196     CD =  0.00353   =>   CDf =  0.00282    CDp =  0.00071

 Side 1  free  transition at x/c =  0.9140   74
 Side 2  free  transition at x/c =  0.8698   71

   6   rms: 0.3445E+01   max: -.5993E+02   T at    2  1   RLX: 0.008
       a =  0.517      CL =  0.0514
      Cm = -0.0195     CD =  0.00352   =>   CDf =  0.00275    CDp =  0.00077

 Side 1  free  transition at x/c =  0.9132   74
 Side 2  free  transition at x/c =  0.8750   72

   7   rms: 0.6272E+00   max: -.1195E+02   C at   72  2   RLX: 0.042
       a =  0.517      CL =  0.0544
      Cm = -0.0190     CD =  0.00346   =>   CDf =  0.00273    CDp =  0.00073

 Side 1  free  transition at x/c =  0.9091   74
 Side 2  free  transition at x/c =  0.8862   73

   8   rms: 0.4550E+00   max: -.8091E+01   C at   73  2   RLX: 0.062
       a =  0.517      CL =  0.0596
      Cm = -0.0187     CD =  0.00344   =>   CDf =  0.00272    CDp =  0.00071

 Side 1  free  transition at x/c =  0.9029   74
 Side 2  free  transition at x/c =  0.8976   73

   9   rms: 0.2998E+00   max: -.4658E+01   C at   73  2   RLX: 0.107
       a =  0.517      CL =  0.0687
      Cm = -0.0183     CD =  0.00346   =>   CDf =  0.00271    CDp =  0.00074

 Side 1  free  transition at x/c =  0.8938   73
 Side 2  free  transition at x/c =  0.9207   75

  10   rms: 0.3545E+00   max: -.6247E+01   C at   75  2   RLX: 0.080
       a =  0.517      CL =  0.0741
      Cm = -0.0176     CD =  0.00341   =>   CDf =  0.00266    CDp =  0.00075
 VISCAL:  Convergence failed

.OPERva   c>  
.OPERva   c>  
.OPERva   c>   Calculating wake trajectory ...
 Calculating source influence matrix ...

 Solving BL system ...

 Side 1  free  transition at x/c =  0.8867   72
 Side 2  free  transition at x/c =  0.9352   76

   1   rms: 0.3914E+00   max: -.6266E+01   C at   76  2   RLX: 0.080
       a =  0.862      CL =  0.0828
      Cm = -0.0172     CD =  0.00342   =>   CDf =  0.00267    CDp =  0.00075

 Side 1  free  transition at x/c =  0.8759   72
 Side 2  free  transition at x/c =  0.9540   77

   2   rms: 0.2483E+00   max: 0.2567E+01   C at   72  1   RLX: 0.474
       a =  0.862      CL =  0.1277
      Cm = -0.0145     CD =  0.00358   =>   CDf =  0.00268    CDp =  0.00090

 Side 1  free  transition at x/c =  0.8117   67
 Side 2 forced transition at x/c =  1.0000   81

   3   rms: 0.1470E+00   max: 0.6466E+00   C at   81  2
       a =  0.862      CL =  0.2153
      Cm = -0.0212     CD =  0.00378   =>   CDf =  0.00300    CDp =  0.00078

 Side 1  free  transition at x/c =  0.7167   61
 Side 2 forced transition at x/c =  1.0000   80

   4   rms: 0.2897E-01   max: -.3832E+00   C at   61  1
       a =  0.862      CL =  0.2143
      Cm = -0.0209     CD =  0.00395   =>   CDf =  0.00335    CDp =  0.00061

 Side 1  free  transition at x/c =  0.7324   62
 Side 2 forced transition at x/c =  1.0000   80

   5   rms: 0.6923E-02   max: 0.1223E+00   C at   62  1
       a =  0.862      CL =  0.2147
      Cm = -0.0210     CD =  0.00395   =>   CDf =  0.00325    CDp =  0.00070

 Side 1  free  transition at x/c =  0.7293   62
 Side 2 forced transition at x/c =  1.0000   80

   6   rms: 0.1585E-03   max: -.2297E-02   C at   62  1
       a =  0.862      CL =  0.2147
      Cm = -0.0210     CD =  0.00395   =>   CDf =  0.00326    CDp =  0.00069

 Side 1  free  transition at x/c =  0.7294   62
 Side 2 forced transition at x/c =  1.0000   80

   7   rms: 0.1201E-05   max: -.6847E-05   D at   65  1
       a =  0.862      CL =  0.2147
      Cm = -0.0210     CD =  0.00395   =>   CDf =  0.00326    CDp =  0.00069
 plradd ia,ip,cpol           12          81  0.12235848    

 Point added to stored polar  1
 Save file unspecified or not available
 Dump file unspecified or not available

.OPERva   c>  
.OPERva   c>  
.OPERva   c>   Calculating wake trajectory ...
 Calculating source influence matrix ...

 Solving BL system ...

 Side 1  free  transition at x/c =  0.7294   62
 Side 2 forced transition at x/c =  1.0000   80

   1   rms: 0.1089E+00   max: 0.1819E+01   C at   62  1   RLX: 0.825
       a =  1.207      CL =  0.2441
      Cm = -0.0204     CD =  0.00414   =>   CDf =  0.00326    CDp =  0.00088

 Side 1  free  transition at x/c =  0.6700   58
 Side 2 forced transition at x/c =  1.0000   80

   2   rms: 0.1497E-01   max: 0.1238E+00   D at   61  1
       a =  1.207      CL =  0.2503
      Cm = -0.0203     CD =  0.00420   =>   CDf =  0.00351    CDp =  0.00070

 Side 1  free  transition at x/c =  0.6665   57
 Side 2 forced transition at x/c =  1.0000   80

   3   rms: 0.4923E-03   max: -.7536E-02   C at   57  1
       a =  1.207      CL =  0.2502
      Cm = -0.0203     CD =  0.00421   =>   CDf =  0.00351    CDp =  0.00070

 Side 1  free  transition at x/c =  0.6666   57
 Side 2 forced transition at x/c =  1.0000   80

   4   rms: 0.1546E-05   max: -.2609E-04   D at   59  1
       a =  1.207      CL =  0.2502
      Cm = -0.0203     CD =  0.00421   =>   CDf =  0.00351    CDp =  0.00070
 plradd ia,ip,cpol           13          81  9.61031392E-02

 Point added to stored polar  1
 Save file unspecified or not available
 Dump file unspecified or not available

.OPERva   c>  
.OPERva   c>  
.OPERva   c>   Calculating wake trajectory ...
 Calculating source influence matrix ...

 Solving BL system ...

 Side 1  free  transition at x/c =  0.6666   57
 Side 2 forced transition at x/c =  1.0000   80

   1   rms: 0.1036E+00   max: 0.1740E+01   C at   57  1   RLX: 0.862
       a =  1.552      CL =  0.2814
      Cm = -0.0199     CD =  0.00438   =>   CDf =  0.00351    CDp =  0.00087

 Side 1  free  transition at x/c =  0.5995   53
 Side 2 forced transition at x/c =  1.0000   80

   2   rms: 0.1445E-01   max: -.1437E+00   C at   53  1
       a =  1.552      CL =  0.2859
      Cm = -0.0198     CD =  0.00449   =>   CDf =  0.00378    CDp =  0.00071

 Side 1  free  transition at x/c =  0.5997   53
 Side 2 forced transition at x/c =  1.0000   80

   3   rms: 0.6120E-03   max: 0.1076E-01   C at   53  1
       a =  1.552      CL =  0.2858
      Cm = -0.0198     CD =  0.00450   =>   CDf =  0.00376    CDp =  0.00074

 Side 1  free  transition at x/c =  0.5994   53
 Side 2 forced transition at x/c =  1.0000   80

   4   rms: 0.2572E-05   max: 0.3812E-04   C at   53  1
       a =  1.552      CL =  0.2858
      Cm = -0.0198     CD =  0.00450   =>   CDf =  0.00376    CDp =  0.00074
 plradd ia,ip,cpol           14          81  2.24430934E-02

 Point added to stored polar  1
 Save file unspecified or not available
 Dump file unspecified or not available

.OPERva   c>  
.OPERva   c>  
.OPERva   c>   Calculating wake trajectory ...
 Calculating source influence matrix ...

 Solving BL system ...

 Side 1  free  transition at x/c =  0.5994   53
 Side 2 forced transition at x/c =  1.0000   80

   1   rms: 0.1332E+00   max: 0.2309E+01   C at   53  1   RLX: 0.626
       a =  1.897      CL =  0.3078
      Cm = -0.0194     CD =  0.00475   =>   CDf =  0.00376    CDp =  0.00100

 Side 1  free  transition at x/c =  0.5508   50
 Side 2 forced transition at x/c =  1.0000   79

   2   rms: 0.3604E-01   max: 0.4866E+00   C at   50  1
       a =  1.897      CL =  0.3216
      Cm = -0.0193     CD =  0.00481   =>   CDf =  0.00393    CDp =  0.00088

 Side 1  free  transition at x/c =  0.5243   48
 Side 2 forced transition at x/c =  1.0000   79

   3   rms: 0.8212E-02   max: -.1696E+00   C at   48  1
       a =  1.897      CL =  0.3215
      Cm = -0.0193     CD =  0.00483   =>   CDf =  0.00403    CDp =  0.00080

 Side 1  free  transition at x/c =  0.5282   48
 Side 2 forced transition at x/c =  1.0000   79

   4   rms: 0.2667E-03   max: 0.5224E-02   C at   48  1
       a =  1.897      CL =  0.3215
      Cm = -0.0193     CD =  0.00483   =>   CDf =  0.00401    CDp =  0.00082

 Side 1  free  transition at x/c =  0.5282   48
 Side 2 forced transition at x/c =  1.0000   79

   5   rms: 0.8007E-06   max: 0.1322E-04   C at   48  1
       a =  1.897      CL =  0.3215
      Cm = -0.0193     CD =  0.00483   =>   CDf =  0.00401    CDp =  0.00082
 plradd ia,ip,cpol           15          82  8.24824627E-03

 Point added to stored polar  1
 Save file unspecified or not available
 Dump file unspecified or not available

.OPERva   c>  
.OPERva   c>  
.OPERva   c>   Calculating wake trajectory ...
 Calculating source influence matrix ...

 Solving BL system ...

 Side 1  free  transition at x/c =  0.5282   48
 Side 2 forced transition at x/c =  1.0000   79

   1   rms: 0.1285E+00   max: 0.2390E+01   C at   48  1   RLX: 0.628
       a =  2.241      CL =  0.3442
      Cm = -0.0190     CD =  0.00501   =>   CDf =  0.00401    CDp =  0.00100

 Side 1  free  transition at x/c =  0.4718   44
 Side 2 forced transition at x/c =  1.0000   79

   2   rms: 0.3044E-01   max: 0.3626E+00   C at   44  1
       a =  2.241      CL =  0.3574
      Cm = -0.0188     CD =  0.00518   =>   CDf =  0.00423    CDp =  0.00095

 Side 1  free  transition at x/c =  0.4419   42
 Side 2 forced transition at x/c =  1.0000   79

   3   rms: 0.1074E-01   max: -.2250E+00   C at   42  1
       a =  2.241      CL =  0.3571
      Cm = -0.0188     CD =  0.00522   =>   CDf =  0.00433    CDp =  0.00089

 Side 1  free  transition at x/c =  0.4470   42
 Side 2 forced transition at x/c =  1.0000   79

   4   rms: 0.3586E-03   max: 0.6453E-02   C at   42  1
       a =  2.241      CL =  0.3571
      Cm = -0.0188     CD =  0.00523   =>   CDf =  0.00431    CDp =  0.00092

 Side 1  free  transition at x/c =  0.4470   42
 Side 2 forced transition at x/c =  1.0000   79

   5   rms: 0.1839E-05   max: 0.3595E-04   C at   42  1
       a =  2.241      CL =  0.3571
      Cm = -0.0188     CD =  0.00523   =>   CDf =  0.00431    CDp =  0.00092
 plradd ia,ip,cpol           16          82  4.71268361E-03

 Point added to stored polar  1
 Save file unspecified or not available
 Dump file unspecified or not available

.OPERva   c>  
.OPERva   c>  
.OPERva   c>   Calculating wake trajectory ...
 Calculating source influence matrix ...

 Solving BL system ...

 Side 1  free  transition at x/c =  0.4470   42
 Side 2 forced transition at x/c =  1.0000   79

   1   rms: 0.1512E+00   max: 0.2959E+01   C at   42  1   RLX: 0.507
       a =  2.586      CL =  0.3754
      Cm = -0.0186     CD =  0.00540   =>   CDf =  0.00431    CDp =  0.00109

 Side 1  free  transition at x/c =  0.3920   38
 Side 2 forced transition at x/c =  1.0000   79

   2   rms: 0.4144E-01   max: 0.5003E+00   C at   38  1
       a =  2.586      CL =  0.3930
      Cm = -0.0185     CD =  0.00562   =>   CDf =  0.00453    CDp =  0.00109

 Side 1  free  transition at x/c =  0.3509   35
 Side 2 forced transition at x/c =  1.0000   79

   3   rms: 0.1322E-01   max: -.2693E+00   C at   35  1
       a =  2.586      CL =  0.3926
      Cm = -0.0184     CD =  0.00572   =>   CDf =  0.00469    CDp =  0.00103

 Side 1  free  transition at x/c =  0.3583   36
 Side 2 forced transition at x/c =  1.0000   79

   4   rms: 0.1761E-02   max: 0.3194E-01   C at   36  1
       a =  2.586      CL =  0.3926
      Cm = -0.0184     CD =  0.00570   =>   CDf =  0.00465    CDp =  0.00106

 Side 1  free  transition at x/c =  0.3574   36
 Side 2 forced transition at x/c =  1.0000   79

   5   rms: 0.1552E-04   max: 0.2033E-03   D at   36  1
       a =  2.586      CL =  0.3926
      Cm = -0.0184     CD =  0.00570   =>   CDf =  0.00465    CDp =  0.00105
 plradd ia,ip,cpol           17          82  2.44662585E-03

 Point added to stored polar  1
 Save file unspecified or not available
 Dump file unspecified or not available

.OPERva   c>  
.OPERva   c>  
.OPERva   c>   Calculating wake trajectory ...
 Calculating source influence matrix ...

 Solving BL system ...

 Side 1  free  transition at x/c =  0.3574   36
 Side 2 forced transition at x/c =  1.0000   79

   1   rms: 0.1545E+00   max: 0.2950E+01   C at   36  1   RLX: 0.509
       a =  2.931      CL =  0.4108
      Cm = -0.0183     CD =  0.00594   =>   CDf =  0.00465    CDp =  0.00129

 Side 1  free  transition at x/c =  0.3218   33
 Side 2 forced transition at x/c =  1.0000   79

   2   rms: 0.4260E-01   max: 0.5721E+00   C at   33  1
       a =  2.931      CL =  0.4290
      Cm = -0.0181     CD =  0.00604   =>   CDf =  0.00473    CDp =  0.00130

 Side 1  free  transition at x/c =  0.2933   32
 Side 2 forced transition at x/c =  1.0000   78

   3   rms: 0.1325E-01   max: -.2146E+00   C at   32  1
       a =  2.931      CL =  0.4288
      Cm = -0.0181     CD =  0.00609   =>   CDf =  0.00488    CDp =  0.00120

 Side 1  free  transition at x/c =  0.2970   32
 Side 2 forced transition at x/c =  1.0000   78

   4   rms: 0.2316E-02   max: 0.2355E-01   D at    7  1
       a =  2.931      CL =  0.4288
      Cm = -0.0181     CD =  0.00609   =>   CDf =  0.00487    CDp =  0.00122

 Side 1  free  transition at x/c =  0.2975   32
 Side 2 forced transition at x/c =  1.0000   78

   5   rms: 0.2101E-04   max: 0.4401E-03   C at   32  1
       a =  2.931      CL =  0.4288
      Cm = -0.0181     CD =  0.00609   =>   CDf =  0.00486    CDp =  0.00122
 plradd ia,ip,cpol           18          83  2.44662585E-03

 Point added to stored polar  1
 Save file unspecified or not available
 Dump file unspecified or not available

.OPERva   c>  
.OPERva   c>  
.OPERva   c>   Calculating wake trajectory ...
 Calculating source influence matrix ...

 Solving BL system ...

 Side 1  free  transition at x/c =  0.2975   32
 Side 2 forced transition at x/c =  1.0000   78

   1   rms: 0.9550E-01   max: 0.1609E+01   C at   32  1   RLX: 0.932
       a =  3.276      CL =  0.4633
      Cm = -0.0179     CD =  0.00632   =>   CDf =  0.00486    CDp =  0.00145

 Side 1  free  transition at x/c =  0.2500   29
 Side 2 forced transition at x/c =  1.0000   78

   2   rms: 0.1399E-01   max: -.2094E+00   C at   29  1
       a =  3.276      CL =  0.4654
      Cm = -0.0179     CD =  0.00641   =>   CDf =  0.00504    CDp =  0.00137

 Side 1  free  transition at x/c =  0.2536   29
 Side 2 forced transition at x/c =  1.0000   78

   3   rms: 0.1335E-02   max: 0.2759E-01   C at   29  1
       a =  3.276      CL =  0.4654
      Cm = -0.0179     CD =  0.00642   =>   CDf =  0.00502    CDp =  0.00140

 Side 1  free  transition at x/c =  0.2531   29
 Side 2 forced transition at x/c =  1.0000   78

   4   rms: 0.6499E-05   max: -.1234E-03   D at   30  1
       a =  3.276      CL =  0.4654
      Cm = -0.0179     CD =  0.00642   =>   CDf =  0.00502    CDp =  0.00140
 plradd ia,ip,cpol           19          83  2.44662585E-03

 Point added to stored polar  1
 Save file unspecified or not available
 Dump file unspecified or not available

.OPERva   c>  
.OPERva   c>  
.OPERva   c>   Calculating wake trajectory ...
 Calculating source influence matrix ...

 Solving BL system ...

 Side 1  free  transition at x/c =  0.2531   29
 Side 2 forced transition at x/c =  1.0000   78

   1   rms: 0.1023E+00   max: 0.1691E+01   C at   29  1   RLX: 0.887
       a =  3.621      CL =  0.4981
      Cm = -0.0177     CD =  0.00668   =>   CDf =  0.00502    CDp =  0.00167

 Side 1  free  transition at x/c =  0.2110   26
 Side 2 forced transition at x/c =  1.0000   78

   2   rms: 0.1376E-01   max: 0.1294E+00   D at   28  1
       a =  3.621      CL =  0.5021
      Cm = -0.0177     CD =  0.00676   =>   CDf =  0.00517    CDp =  0.00159

 Side 1  free  transition at x/c =  0.2097   26
 Side 2 forced transition at x/c =  1.0000   78

   3   rms: 0.2410E-03   max: 0.4144E-02   C at   26  1
       a =  3.621      CL =  0.5020
      Cm = -0.0176     CD =  0.00676   =>   CDf =  0.00516    CDp =  0.00160

 Side 1  free  transition at x/c =  0.2096   26
 Side 2 forced transition at x/c =  1.0000   78

   4   rms: 0.1852E-05   max: -.3475E-04   C at   26  1
       a =  3.621      CL =  0.5020
      Cm = -0.0176     CD =  0.00676   =>   CDf =  0.00516    CDp =  0.00160
 plradd ia,ip,cpol           20          83  1.00047677E-03

 Point added to stored polar  1
 Save file unspecified or not available
 Dump file unspecified or not available

.OPERva   c>  
.OPERva   c>  
.OPERva   c>   Calculating wake trajectory ...
 Calculating source influence matrix ...

 Solving BL system ...

 Side 1  free  transition at x/c =  0.2096   26
 Side 2 forced transition at x/c =  1.0000   78

   1   rms: 0.1183E+00   max: 0.2039E+01   C at   26  1   RLX: 0.660
       a =  3.966      CL =  0.5261
      Cm = -0.0175     CD =  0.00702   =>   CDf =  0.00516    CDp =  0.00186

 Side 1  free  transition at x/c =  0.1459   21
 Side 2 forced transition at x/c =  1.0000   78

   2   rms: 0.5646E-01   max: 0.1178E+01   C at   21  1
       a =  3.966      CL =  0.5374
      Cm = -0.0174     CD =  0.00740   =>   CDf =  0.00543    CDp =  0.00197

 Side 1  free  transition at x/c =  0.1061   18
 Side 2 forced transition at x/c =  1.0000   78

   3   rms: 0.1053E-01   max: -.2308E+00   C at   18  1
       a =  3.966      CL =  0.5369
      Cm = -0.0173     CD =  0.00753   =>   CDf =  0.00561    CDp =  0.00192

 Side 1  free  transition at x/c =  0.1090   18
 Side 2 forced transition at x/c =  1.0000   78

   4   rms: 0.3259E-03   max: 0.7262E-02   C at   18  1
       a =  3.966      CL =  0.5369
      Cm = -0.0173     CD =  0.00753   =>   CDf =  0.00559    CDp =  0.00193

 Side 1  free  transition at x/c =  0.1090   18
 Side 2 forced transition at x/c =  1.0000   78

   5   rms: 0.9539E-06   max: 0.1576E-04   C at   18  1
       a =  3.966      CL =  0.5369
      Cm = -0.0173     CD =  0.00753   =>   CDf =  0.00559    CDp =  0.00193
 plradd ia,ip,cpol           21          83  1.00047677E-03

 Point added to stored polar  1
 Save file unspecified or not available
 Dump file unspecified or not available

.OPERva   c>  
.OPERva   c>  
.OPERva   c>   Calculating wake trajectory ...
 Calculating source influence matrix ...

 Solving BL system ...

 Side 1  free  transition at x/c =  0.1090   18
 Side 2 forced transition at x/c =  1.0000   78

   1   rms: 0.3263E+00   max: 0.7919E+01   C at   18  1   RLX: 0.189
       a =  4.310      CL =  0.5435
      Cm = -0.0173     CD =  0.00768   =>   CDf =  0.00550    CDp =  0.00218

 Side 1  free  transition at x/c =  0.0866   18
 Side 2 forced transition at x/c =  1.0000   77

   2   rms: 0.2300E+00   max: 0.3573E+01   C at   18  1   RLX: 0.290
       a =  4.310      CL =  0.5513
      Cm = -0.0172     CD =  0.00797   =>   CDf =  0.00568    CDp =  0.00230

 Side 1  free  transition at x/c =  0.0679   16
 Side 2 forced transition at x/c =  1.0000   77

   3   rms: 0.1146E+00   max: 0.2603E+01   C at   16  1   RLX: 0.576
       a =  4.310      CL =  0.5633
      Cm = -0.0171     CD =  0.00813   =>   CDf =  0.00576    CDp =  0.00237

 Side 1  free  transition at x/c =  0.0476   15
 Side 2 forced transition at x/c =  1.0000   77

   4   rms: 0.4045E-01   max: -.4555E+00   D at   15  1
       a =  4.310      CL =  0.5716
      Cm = -0.0169     CD =  0.00841   =>   CDf =  0.00586    CDp =  0.00254

 Side 1  free  transition at x/c =  0.0372   14
 Side 2 forced transition at x/c =  1.0000   77

   5   rms: 0.8590E-02   max: -.1074E+00   D at   15  1
       a =  4.310      CL =  0.5718
      Cm = -0.0170     CD =  0.00836   =>   CDf =  0.00591    CDp =  0.00245

 Side 1  free  transition at x/c =  0.0350   14
 Side 2 forced transition at x/c =  1.0000   77

   6   rms: 0.1014E-02   max: -.1416E-01   D at   14  1
       a =  4.310      CL =  0.5718
      Cm = -0.0170     CD =  0.00836   =>   CDf =  0.00592    CDp =  0.00244

 Side 1  free  transition at x/c =  0.0345   14
 Side 2 forced transition at x/c =  1.0000   77

   7   rms: 0.6297E-04   max: -.9347E-03   D at   14  1
       a =  4.310      CL =  0.5718
      Cm = -0.0170     CD =  0.00836   =>   CDf =  0.00592    CDp =  0.00244
 plradd ia,ip,cpol           22          84  1.00047677E-03

 Point added to stored polar  1
 Save file unspecified or not available
 Dump file unspecified or not available

.OPERva   c>  
.OPERva   c>  
.OPERva   c>   Calculating wake trajectory ...
 Calculating source influence matrix ...

 Solving BL system ...

 Side 1  free  transition at x/c =  0.0345   14
 Side 2 forced transition at x/c =  1.0000   77

   1   rms: 0.1295E+00   max: -.1066E+01   D at   14  1   RLX: 0.469
       a =  4.655      CL =  0.5885
      Cm = -0.0167     CD =  0.00873   =>   CDf =  0.00592    CDp =  0.00280

 Side 1  free  transition at x/c =  0.0246   13
 Side 2 forced transition at x/c =  1.0000   77

   2   rms: 0.9415E-01   max: 0.8174E+00   C at   13  1
       a =  4.655      CL =  0.6077
      Cm = -0.0163     CD =  0.00922   =>   CDf =  0.00599    CDp =  0.00323

 Side 1  free  transition at x/c =  0.0178   12
 Side 2 forced transition at x/c =  1.0000   77

   3   rms: 0.1328E+00   max: -.8805E+00   D at   12  1   RLX: 0.568
       a =  4.655      CL =  0.6074
      Cm = -0.0168     CD =  0.00938   =>   CDf =  0.00565    CDp =  0.00372

 Side 1  free  transition at x/c =  0.0195   12
 Side 2 forced transition at x/c =  1.0000   77

   4   rms: 0.6834E-01   max: -.7032E+00   D at   12  1   RLX: 0.711
       a =  4.655      CL =  0.6082
      Cm = -0.0167     CD =  0.00895   =>   CDf =  0.00582    CDp =  0.00313

 Side 1  free  transition at x/c =  0.0204   12
 Side 2 forced transition at x/c =  1.0000   77

   5   rms: 0.1628E-01   max: -.2720E+00   D at   12  1
       a =  4.655      CL =  0.6083
      Cm = -0.0166     CD =  0.00886   =>   CDf =  0.00592    CDp =  0.00294

 Side 1  free  transition at x/c =  0.0202   12
 Side 2 forced transition at x/c =  1.0000   77

   6   rms: 0.2198E-02   max: 0.3013E-01   D at   12  1
       a =  4.655      CL =  0.6082
      Cm = -0.0166     CD =  0.00887   =>   CDf =  0.00594    CDp =  0.00293

 Side 1  free  transition at x/c =  0.0200   12
 Side 2 forced transition at x/c =  1.0000   77

   7   rms: 0.2417E-04   max: 0.2747E-03   T at   12  1
       a =  4.655      CL =  0.6082
      Cm = -0.0166     CD =  0.00887   =>   CDf =  0.00594    CDp =  0.00293
 plradd ia,ip,cpol           23          84  1.00047677E-03

 Point added to stored polar  1
 Save file unspecified or not available
 Dump file unspecified or not available

.OPERva   c>  
.OPERva   c>  
.OPERva   c>   Calculating wake trajectory ...
 Calculating source influence matrix ...

 Solving BL system ...

 Side 1  free  transition at x/c =  0.0200   12
 Side 2 forced transition at x/c =  1.0000   77

   1   rms: 0.7396E-01   max: -.5209E+00   D at   12  1   RLX: 0.960
       a =  5.000      CL =  0.6435
      Cm = -0.0163     CD =  0.00928   =>   CDf =  0.00594    CDp =  0.00334

 Side 1  free  transition at x/c =  0.0152   12
 Side 2 forced transition at x/c =  1.0000   77

   2   rms: 0.4918E-01   max: 0.3079E+00   D at   11  1
       a =  5.000      CL =  0.6432
      Cm = -0.0159     CD =  0.00994   =>   CDf =  0.00588    CDp =  0.00405

 Side 1  free  transition at x/c =  0.0134   11
 Side 2 forced transition at x/c =  1.0000   77

   3   rms: 0.4747E-01   max: -.3522E+00   D at   11  1
       a =  5.000      CL =  0.6442
      Cm = -0.0161     CD =  0.00959   =>   CDf =  0.00574    CDp =  0.00385

 Side 1  free  transition at x/c =  0.0137   11
 Side 2 forced transition at x/c =  1.0000   77

   4   rms: 0.2401E-02   max: 0.2608E-01   D at   11  1
       a =  5.000      CL =  0.6441
      Cm = -0.0161     CD =  0.00962   =>   CDf =  0.00586    CDp =  0.00376

 Side 1  free  transition at x/c =  0.0137   11
 Side 2 forced transition at x/c =  1.0000   77

   5   rms: 0.7517E-05   max: 0.7569E-04   T at   11  1
       a =  5.000      CL =  0.6441
      Cm = -0.0161     CD =  0.00962   =>   CDf =  0.00586    CDp =  0.00376
 plradd ia,ip,cpol           24          84  1.00047677E-03

 Point added to stored polar  1
 Save file unspecified or not available
 Dump file unspecified or not available

.OPERva   c>  
.OPERva   c>  
.OPERva   c>  
        airfoil                    Re           Mach       Ncrit  XtripT  XtripB     file
       ------------------------  ------------  ----------  -----  ------  ------    -------------------
 >  1  NACA 1206                 1.000e6       0.000        9.00   1.000   1.000    

Enter polar output filename   s>  
.OPERva   c>  
 ==============================================================
 Polar  1
  
       XFOIL         Version 6.99
  
 Calculated polar for: NACA 1206                                       
  
 1 1 Reynolds number fixed          Mach number fixed         
  
 xtrf =   1.000 (top)        1.000 (bottom)  
 Mach =   0.000     Re =     1.000 e 6     Ncrit =   9.000
  
   alpha    CL        CD       CDp       CM     Top_Xtr  Bot_Xtr
  ------ -------- --------- --------- -------- -------- --------
  -5.000  -0.4523   0.01503   0.01063  -0.0185   1.0000   0.0081
  -4.655  -0.4193   0.01309   0.00839  -0.0173   1.0000   0.0087
  -4.310  -0.3859   0.01154   0.00663  -0.0161   1.0000   0.0092
  -3.966  -0.3514   0.01131   0.00634  -0.0152   1.0000   0.0099
  -3.621  -0.3198   0.00881   0.00355  -0.0137   1.0000   0.0117
  -3.276  -0.2856   0.00834   0.00305  -0.0128   1.0000   0.0138
  -2.931  -0.2513   0.00795   0.00261  -0.0120   1.0000   0.0157
  -2.586  -0.2031   0.00732   0.00191  -0.0141   0.9969   0.0223
  -2.241  -0.1507   0.00691   0.00150  -0.0172   0.9914   0.0343
  -1.897  -0.1031   0.00652   0.00126  -0.0193   0.9855   0.0721
  -1.552  -0.0586   0.00606   0.00107  -0.0209   0.9771   0.1568
   0.862   0.2147   0.00395   0.00069  -0.0210   0.7294   1.0000
   1.207   0.2502   0.00421   0.00070  -0.0203   0.6666   1.0000
   1.552   0.2858   0.00450   0.00074  -0.0198   0.5994   1.0000
   1.897   0.3215   0.00483   0.00082  -0.0193   0.5282   1.0000
   2.241   0.3571   0.00523   0.00092  -0.0188   0.4470   1.0000
   2.586   0.3926   0.00570   0.00105  -0.0184   0.3574   1.0000
   2.931   0.4288   0.00609   0.00122  -0.0181   0.2975   1.0000
   3.276   0.4654   0.00642   0.00140  -0.0179   0.2531   1.0000
   3.621   0.5020   0.00676   0.00160  -0.0176   0.2096   1.0000
   3.966   0.5369   0.00753   0.00193  -0.0173   0.1090   1.0000
   4.310   0.5718   0.00836   0.00244  -0.0170   0.0345   1.0000
   4.655   0.6082   0.00887   0.00293  -0.0166   0.0200   1.0000
   5.000   0.6441   0.00962   0.00376  -0.0161   0.0137   1.0000

.OPERva   c>  
 XFOIL   c>  