
 ===================================================
  XFOIL Version 6.99
  Copyright (C) 2000   Mark Drela, Harold Youngren

  This software comes with ABSOLUTELY NO WARRANTY,
    subject to the GNU General Public License.

  Caveat computor
 ===================================================

 File  xfoil.def  not found

   QUIT    Exit program

  .OPER    Direct operating point(s)
  .MDES    Complex mapping design routine
  .QDES    Surface speed design routine
  .GDES    Geometry design routine

   SAVE f  Write airfoil to labeled coordinate file
   PSAV f  Write airfoil to plain coordinate file
   ISAV f  Write airfoil to ISES coordinate file
   MSAV f  Write airfoil to MSES coordinate file
   REVE    Reverse written-airfoil node ordering

   LOAD f  Read buffer airfoil from coordinate file
   NACA i  Set NACA 4,5-digit airfoil and buffer airfoil
   INTE    Set buffer airfoil by interpolating two airfoils
   NORM    Buffer airfoil normalization toggle
   XYCM rr Change CM reference location, currently  0.25000 0.00000

   BEND    Display structural properties of current airfoil

   PCOP    Set current-airfoil panel nodes directly from buffer airfoil points
   PANE    Set current-airfoil panel nodes ( 160 ) based on curvature
  .PPAR    Show/change paneling

  .PLOP    Plotting options

   WDEF f  Write  current-settings file
   RDEF f  Reread current-settings file
   NAME s  Specify new airfoil name
   NINC    Increment name version number

   Z       Zoom    | (available in all menus)
   U       Unzoom  | 

 XFOIL   c>   Max thickness =     0.130037  at x =   0.300
 Max camber    =     0.010000  at x =   0.202

 Buffer airfoil set using 331 points

 Blunt trailing edge.  Gap =  0.00273

 Paneling parameters used...
   Number of panel nodes       160
   Panel bunching parameter    1.000
   TE/LE panel density ratio   0.150
   Refined-area/LE panel density ratio    0.200
   Top    side refined area x/c limits  1.000 1.000
   Bottom side refined area x/c limits  1.000 1.000

 XFOIL   c>  
 XFOIL   c>  
 XFOIL   c>  
.OPERi   c>  
.OPERi   c>  
.OPERi   c>  
 M  =    0.0000
 Re =   1000000

.OPERv   c>  
 Polar  1 newly created for accumulation
 Airfoil archived with polar: NACA 1213                                       

Enter  polar save filename  OR  <return> for no file   s>  
 Polar save file will NOT be written

Enter  polar dump filename  OR  <return> for no file   s>  
 Polar dump file will NOT be written

 Polar accumulation enabled

.OPERva   c>   Calculating unit vorticity distributions ...
 Calculating wake trajectory ...
 Calculating source influence matrix ...

 Solving BL system ...

 Initializing BL ...
    side            1  ...
 MRCHUE: Inverse mode at  59     Hk =   3.931
 MRCHUE: Inverse mode at  60     Hk =   4.670
 MRCHUE: Inverse mode at  61     Hk =   5.342
 MRCHUE: Inverse mode at  62     Hk =   5.935
 MRCHUE: Inverse mode at  63     Hk =   6.445
 MRCHUE: Inverse mode at  64     Hk =   6.741
    side            2  ...
 MRCHUE: Inverse mode at  28     Hk =   4.571
 MRCHUE: Inverse mode at  29     Hk =   5.900
 MRCHUE: Inverse mode at  30     Hk =   7.220
 MRCHUE: Inverse mode at  31     Hk =   8.564
 MRCHUE: Inverse mode at  32     Hk =   9.352
 MRCHUE: Inverse mode at  33     Hk =   2.502
 MRCHUE: Inverse mode at  93     Hk =   2.500
 MRCHUE: Inverse mode at  94     Hk =   2.500
 MRCHUE: Inverse mode at  95     Hk =   2.500
 MRCHUE: Inverse mode at  96     Hk =   2.500
 MRCHUE: Inverse mode at  97     Hk =   2.500
 MRCHUE: Convergence failed at  98  side 2    Res =  0.6290E+01

 MRCHDU: Convergence failed at  98  side 2    Res =  0.1481E+01
 Side 1 forced transition at x/c =  1.0000   64
 Side 2  free  transition at x/c =  0.0192   32

   1   rms: 0.4046E+00   max: -.2108E+01   D at   64  1   RLX: 0.237
       a =-12.000      CL = -1.2993
      Cm = -0.0104     CD =  0.00999   =>   CDf =  0.00573    CDp =  0.00426

 Side 1 forced transition at x/c =  1.0000   65
 Side 2  free  transition at x/c =  0.0195   32

   2   rms: 0.2283E+00   max: -.1191E+01   C at   65  1   RLX: 0.420
       a =-12.000      CL = -1.2526
      Cm = -0.0164     CD =  0.01272   =>   CDf =  0.00551    CDp =  0.00721

 Side 1 forced transition at x/c =  1.0000   65
 Side 2  free  transition at x/c =  0.0203   32

   3   rms: 0.1312E+00   max: 0.5831E+00   D at  105  2
       a =-12.000      CL = -1.1748
      Cm = -0.0257     CD =  0.01808   =>   CDf =  0.00550    CDp =  0.01258

 Side 1 forced transition at x/c =  1.0000   65
 Side 2  free  transition at x/c =  0.0208   32

   4   rms: 0.2700E-01   max: 0.3217E+00   C at   65  1
       a =-12.000      CL = -1.1578
      Cm = -0.0290     CD =  0.01918   =>   CDf =  0.00545    CDp =  0.01373

 Side 1 forced transition at x/c =  1.0000   65
 Side 2  free  transition at x/c =  0.0208   32

   5   rms: 0.2320E-02   max: 0.3234E-01   C at   65  1
       a =-12.000      CL = -1.1580
      Cm = -0.0289     CD =  0.01920   =>   CDf =  0.00538    CDp =  0.01382

 Side 1 forced transition at x/c =  1.0000   65
 Side 2  free  transition at x/c =  0.0208   32

   6   rms: 0.3965E-04   max: 0.8424E-03   C at   65  1
       a =-12.000      CL = -1.1580
      Cm = -0.0289     CD =  0.01920   =>   CDf =  0.00538    CDp =  0.01382
 plradd ia,ip,cpol            1          64  2.38536694E-03

 Point added to stored polar  1
 Save file unspecified or not available
 Dump file unspecified or not available

.OPERva   c>  
.OPERva   c>  
.OPERva   c>   Calculating wake trajectory ...
 Calculating source influence matrix ...

 Solving BL system ...

 Side 1 forced transition at x/c =  1.0000   65
 Side 2  free  transition at x/c =  0.0208   32

   1   rms: 0.1161E+00   max: -.3311E+00   T at   32  2
       a =-11.172      CL = -1.0948
      Cm = -0.0248     CD =  0.01746   =>   CDf =  0.00565    CDp =  0.01181

 Side 1 forced transition at x/c =  1.0000   66
 Side 2  free  transition at x/c =  0.0222   31

   2   rms: 0.2485E-01   max: -.1767E+00   D at   31  2
       a =-11.172      CL = -1.0953
      Cm = -0.0244     CD =  0.01761   =>   CDf =  0.00548    CDp =  0.01212

 Side 1 forced transition at x/c =  1.0000   66
 Side 2  free  transition at x/c =  0.0224   31

   3   rms: 0.8824E-03   max: 0.9667E-02   C at   66  1
       a =-11.172      CL = -1.0955
      Cm = -0.0243     CD =  0.01761   =>   CDf =  0.00553    CDp =  0.01208

 Side 1 forced transition at x/c =  1.0000   66
 Side 2  free  transition at x/c =  0.0224   31

   4   rms: 0.6127E-05   max: 0.8884E-04   C at   66  1
       a =-11.172      CL = -1.0955
      Cm = -0.0243     CD =  0.01761   =>   CDf =  0.00553    CDp =  0.01208
 plradd ia,ip,cpol            2          65  2.38536694E-03

 Point added to stored polar  1
 Save file unspecified or not available
 Dump file unspecified or not available

.OPERva   c>  
.OPERva   c>  
.OPERva   c>   Calculating wake trajectory ...
 Calculating source influence matrix ...

 Solving BL system ...

 Side 1 forced transition at x/c =  1.0000   66
 Side 2  free  transition at x/c =  0.0224   31

   1   rms: 0.1156E+00   max: -.3502E+00   T at   31  2
       a =-10.345      CL = -1.0321
      Cm = -0.0195     CD =  0.01623   =>   CDf =  0.00578    CDp =  0.01046

 Side 1 forced transition at x/c =  1.0000   67
 Side 2  free  transition at x/c =  0.0246   31

   2   rms: 0.3026E-01   max: 0.3708E+00   D at   31  2
       a =-10.345      CL = -1.0394
      Cm = -0.0182     CD =  0.01589   =>   CDf =  0.00569    CDp =  0.01020

 Side 1 forced transition at x/c =  1.0000   67
 Side 2  free  transition at x/c =  0.0245   31

   3   rms: 0.4193E-02   max: 0.4043E-01   D at   31  2
       a =-10.345      CL = -1.0392
      Cm = -0.0182     CD =  0.01592   =>   CDf =  0.00564    CDp =  0.01028

 Side 1 forced transition at x/c =  1.0000   67
 Side 2  free  transition at x/c =  0.0244   31

   4   rms: 0.2233E-04   max: 0.1002E-03   D at   97  2
       a =-10.345      CL = -1.0392
      Cm = -0.0182     CD =  0.01592   =>   CDf =  0.00563    CDp =  0.01029
 plradd ia,ip,cpol            3          66  3.59436776E-03

 Point added to stored polar  1
 Save file unspecified or not available
 Dump file unspecified or not available

.OPERva   c>  
.OPERva   c>  
.OPERva   c>   Calculating wake trajectory ...
 Calculating source influence matrix ...

 Solving BL system ...

 Side 1 forced transition at x/c =  1.0000   67
 Side 2  free  transition at x/c =  0.0244   31

   1   rms: 0.1187E+00   max: -.4036E+00   T at   31  2
       a = -9.517      CL = -0.9783
      Cm = -0.0127     CD =  0.01464   =>   CDf =  0.00585    CDp =  0.00879

 Side 1 forced transition at x/c =  1.0000   68
 Side 2  free  transition at x/c =  0.0262   30

   2   rms: 0.3802E-01   max: -.2912E+00   D at   30  2
       a = -9.517      CL = -0.9791
      Cm = -0.0123     CD =  0.01479   =>   CDf =  0.00568    CDp =  0.00911

 Side 1 forced transition at x/c =  1.0000   68
 Side 2  free  transition at x/c =  0.0265   30

   3   rms: 0.1550E-02   max: 0.1139E-01   D at   30  2
       a = -9.517      CL = -0.9790
      Cm = -0.0124     CD =  0.01482   =>   CDf =  0.00574    CDp =  0.00908

 Side 1 forced transition at x/c =  1.0000   68
 Side 2  free  transition at x/c =  0.0265   30

   4   rms: 0.2015E-04   max: 0.1574E-03   D at   62  1
       a = -9.517      CL = -0.9790
      Cm = -0.0124     CD =  0.01482   =>   CDf =  0.00574    CDp =  0.00908
 plradd ia,ip,cpol            4          67  3.59436776E-03

 Point added to stored polar  1
 Save file unspecified or not available
 Dump file unspecified or not available

.OPERva   c>  
.OPERva   c>  
.OPERva   c>   Calculating wake trajectory ...
 Calculating source influence matrix ...

 Solving BL system ...

 Side 1 forced transition at x/c =  1.0000   68
 Side 2  free  transition at x/c =  0.0265   30

   1   rms: 0.1191E+00   max: 0.4388E+00   C at   30  2
       a = -8.690      CL = -0.9161
      Cm = -0.0069     CD =  0.01390   =>   CDf =  0.00595    CDp =  0.00795

 MRCHDU: Convergence failed at  30  side 2    Res =  0.2783E+01
 MRCHDU: Convergence failed at  31  side 2    Res =  0.3760E+01
 MRCHDU: Convergence failed at  32  side 2    Res =  0.9339E+01
 MRCHDU: Convergence failed at  33  side 2    Res =  0.5510E+01
 MRCHDU: Convergence failed at  34  side 2    Res =  0.5833E+01
 MRCHDU: Convergence failed at  35  side 2    Res =  0.7165E+01
 MRCHDU: Convergence failed at  36  side 2    Res =  0.9312E+01
 MRCHDU: Convergence failed at  37  side 2    Res =  0.1274E+02
 MRCHDU: Convergence failed at  38  side 2    Res =  0.1881E+02
 MRCHDU: Convergence failed at  39  side 2    Res =  0.3170E+02
 MRCHDU: Convergence failed at  40  side 2    Res =  0.8287E+02
 MRCHDU: Convergence failed at  41  side 2    Res =  0.1393E+02
 MRCHDU: Convergence failed at  42  side 2    Res =  0.2077E+02
 MRCHDU: Convergence failed at  43  side 2    Res =  0.2589E+02
 MRCHDU: Convergence failed at  44  side 2    Res =  0.2863E+02
 MRCHDU: Convergence failed at  45  side 2    Res =  0.3203E+02
 MRCHDU: Convergence failed at  46  side 2    Res =  0.3550E+02
 MRCHDU: Convergence failed at  47  side 2    Res =  0.3268E+02
 MRCHDU: Convergence failed at  48  side 2    Res =  0.4591E+02
 MRCHDU: Convergence failed at  49  side 2    Res =  0.3949E+02
 MRCHDU: Convergence failed at  50  side 2    Res =  0.4478E+02
 MRCHDU: Convergence failed at  51  side 2    Res =  0.5093E+02
 MRCHDU: Convergence failed at  52  side 2    Res =  0.5657E+02
 MRCHDU: Convergence failed at  53  side 2    Res =  0.6042E+02
 MRCHDU: Convergence failed at  54  side 2    Res =  0.7307E+02
 MRCHDU: Convergence failed at  55  side 2    Res =  0.6409E+02
 MRCHDU: Convergence failed at  56  side 2    Res =  0.7828E+02
 MRCHDU: Convergence failed at  57  side 2    Res =  0.5973E+02
 MRCHDU: Convergence failed at  58  side 2    Res =  0.7172E+02
 MRCHDU: Convergence failed at  59  side 2    Res =  0.5671E+02
 MRCHDU: Convergence failed at  60  side 2    Res =  0.6724E+02
 MRCHDU: Convergence failed at  61  side 2    Res =  0.8175E+02
 MRCHDU: Convergence failed at  62  side 2    Res =  0.1035E+03
 MRCHDU: Convergence failed at  63  side 2    Res =  0.1385E+03
 MRCHDU: Convergence failed at  64  side 2    Res =  0.2066E+03
 MRCHDU: Convergence failed at  65  side 2    Res =  0.3931E+03
 MRCHDU: Convergence failed at  66  side 2    Res =  0.3260E+04
 MRCHDU: Convergence failed at  67  side 2    Res =  0.2787E+03
 MRCHDU: Convergence failed at  68  side 2    Res =  0.1860E+03
 MRCHDU: Convergence failed at  69  side 2    Res =  0.1593E+03
 MRCHDU: Convergence failed at  70  side 2    Res =  0.1257E+03
 MRCHDU: Convergence failed at  71  side 2    Res =  0.1043E+03
 MRCHDU: Convergence failed at  72  side 2    Res =  0.8935E+02
 MRCHDU: Convergence failed at  73  side 2    Res =  0.7838E+02
 MRCHDU: Convergence failed at  74  side 2    Res =  0.6993E+02
 MRCHDU: Convergence failed at  75  side 2    Res =  0.6317E+02
 MRCHDU: Convergence failed at  76  side 2    Res =  0.3833E+02
 MRCHDU: Convergence failed at  77  side 2    Res =  0.4139E+02
 MRCHDU: Convergence failed at  78  side 2    Res =  0.4500E+02
 MRCHDU: Convergence failed at  79  side 2    Res =  0.4921E+02
 MRCHDU: Convergence failed at  80  side 2    Res =  0.5433E+02
 MRCHDU: Convergence failed at  81  side 2    Res =  0.6059E+02
 MRCHDU: Convergence failed at  82  side 2    Res =  0.4987E+02
 MRCHDU: Convergence failed at  83  side 2    Res =  0.5681E+02
 MRCHDU: Convergence failed at  84  side 2    Res =  0.6607E+02
 MRCHDU: Convergence failed at  85  side 2    Res =  0.7931E+02
 MRCHDU: Convergence failed at  86  side 2    Res =  0.9953E+02
 MRCHDU: Convergence failed at  87  side 2    Res =  0.1344E+03
 MRCHDU: Convergence failed at  88  side 2    Res =  0.2092E+03
 MRCHDU: Convergence failed at  89  side 2    Res =  0.1706E+03
 MRCHDU: Convergence failed at  90  side 2    Res =  0.1172E+05
 MRCHDU: Convergence failed at  91  side 2    Res =  0.3048E+02
 MRCHDU: Convergence failed at  92  side 2    Res =  0.2879E+02
 MRCHDU: Convergence failed at  93  side 2    Res =  0.1209E+03
 Side 1  free  transition at x/c =  0.9928   68
 Side 2  free  transition at x/c =  0.0292   30

   2   rms: 0.1862E+01   max: 0.4967E+01   D at   88  2   RLX: 0.148
       a = -8.690      CL = -3.3475
      Cm =  0.7676     CD =  0.00303   =>   CDf =  0.00093    CDp =  0.00209

 MRCHDU: Convergence failed at  56  side 2    Res =  0.1812E-02
 MRCHDU: Convergence failed at  63  side 2    Res =  0.3128E-01
 MRCHDU: Convergence failed at  96  side 2    Res =  0.8567E+02
 Side 1 forced transition at x/c =  1.0000   69
 Side 2  free  transition at x/c =  0.0294   30

   3   rms: 0.9057E+00   max: -.9102E+00   U at   93  2   RLX: 0.189
       a = -8.690      CL = -2.4055
      Cm =  0.4591     CD =  0.01599   =>   CDf =  0.00811    CDp =  0.00788

 MRCHDU: Convergence failed at  56  side 2    Res =  0.1891E-01
 MRCHDU: Convergence failed at  63  side 2    Res =  0.4755E-01
 Side 1 forced transition at x/c =  1.0000   69
 Side 2  free  transition at x/c =  0.0303   30

   4   rms: 0.7259E+00   max: -.7362E+00   U at   93  2   RLX: 0.293
       a = -8.690      CL = -1.8545
      Cm =  0.2842     CD =  0.01629   =>   CDf =  0.00761    CDp =  0.00868

 MRCHDU: Convergence failed at  63  side 2    Res =  0.5503E-01
 MRCHDU: Convergence failed at  72  side 2    Res =  0.4876E-02
 Side 1 forced transition at x/c =  1.0000   69
 Side 2  free  transition at x/c =  0.0309   30

   5   rms: 0.2168E+01   max: -.5447E+01   C at   57  2   RLX: 0.050
       a = -8.690      CL = -1.7955
      Cm =  0.2637     CD =  0.01669   =>   CDf =  0.00690    CDp =  0.00979

 Side 1 forced transition at x/c =  1.0000   69
 Side 2  free  transition at x/c =  0.0309   30

   6   rms: 0.5512E+00   max: -.5005E+00   U at   93  2   RLX: 0.280
       a = -8.690      CL = -1.4848
      Cm =  0.1691     CD =  0.01554   =>   CDf =  0.00691    CDp =  0.00863

 Side 1 forced transition at x/c =  1.0000   69
 Side 2  free  transition at x/c =  0.0310   30

   7   rms: 0.6964E+01   max: 0.4269E+02   D at   72  2   RLX: 0.018
       a = -8.690      CL = -1.4737
      Cm =  0.1662     CD =  0.01655   =>   CDf =  0.00655    CDp =  0.01000

 MRCHDU: Convergence failed at  58  side 2    Res =  0.1406E+01
 MRCHDU: Convergence failed at  59  side 2    Res =  0.2790E+00
 MRCHDU: Convergence failed at  60  side 2    Res =  0.5204E+00
 MRCHDU: Convergence failed at  61  side 2    Res =  0.9064E+00
 MRCHDU: Convergence failed at  62  side 2    Res =  0.6896E+00
 Side 1 forced transition at x/c =  1.0000   69
 Side 2  free  transition at x/c =  0.0312   31

   8   rms: 0.5172E+00   max: -.5778E+00   T at   96  2   RLX: 0.374
       a = -8.690      CL = -1.2505
      Cm =  0.0900     CD =  0.01365   =>   CDf =  0.00766    CDp =  0.00599

 Side 1 forced transition at x/c =  1.0000   69
 Side 2  free  transition at x/c =  0.0334   31

   9   rms: 0.3658E+00   max: 0.1513E+01   C at   69  1   RLX: 0.471
       a = -8.690      CL = -1.0941
      Cm =  0.0390     CD =  0.01257   =>   CDf =  0.00679    CDp =  0.00577

 Side 1 forced transition at x/c =  1.0000   69
 Side 2  free  transition at x/c =  0.0311   31
 idif Ue xi dudx           1  9.94673297E-02  4.28169966E-03   23.230804    
 Uenew xinew           2  6.92331931E-03  2.98023224E-04

  10   rms: 0.1025E+01   max: 0.1131E+02   C at   69  1   RLX: 0.133
       a = -8.690      CL = -1.1653
      Cm =  0.0514     CD =  0.01268   =>   CDf =  0.00627    CDp =  0.00642
 VISCAL:  Convergence failed

.OPERva   c>  
.OPERva   c>  
.OPERva   c>   Calculating wake trajectory ...
 Calculating source influence matrix ...

 Solving BL system ...

 Side 1 forced transition at x/c =  1.0000   68
 Side 2  free  transition at x/c =  0.0280   31

   1   rms: 0.4744E+00   max: 0.3468E+01   D at   65  1   RLX: 0.351
       a = -7.862      CL = -1.1958
      Cm =  0.0623     CD =  0.01170   =>   CDf =  0.00642    CDp =  0.00528

 MRCHDU: Convergence failed at  88  side 2    Res =  0.2922E+00
 MRCHDU: Convergence failed at  89  side 2    Res =  0.5438E+00
 MRCHDU: Convergence failed at  90  side 2    Res =  0.6358E+00
 MRCHDU: Convergence failed at  91  side 2    Res =  0.1947E+01
 MRCHDU: Convergence failed at  92  side 2    Res =  0.6574E+00
 MRCHDU: Convergence failed at  93  side 2    Res =  0.6667E+00
 MRCHDU: Convergence failed at  94  side 2    Res =  0.5681E+00
 Side 1  free  transition at x/c =  0.9636   65
 Side 2  free  transition at x/c =  0.0274   31

   2   rms: 0.3322E+00   max: 0.7156E+00   D at   97  2   RLX: 0.468
       a = -7.862      CL = -1.0604
      Cm =  0.0533     CD =  0.00754   =>   CDf =  0.00700    CDp =  0.00054

 Side 1  free  transition at x/c =  0.9693   66
 Side 2  free  transition at x/c =  0.0294   30

   3   rms: 0.2866E+01   max: 0.3452E+02   T at   66  1   RLX: 0.018
       a = -7.862      CL = -1.0839
      Cm =  0.0588     CD =  0.00837   =>   CDf =  0.00630    CDp =  0.00207

 Side 1  free  transition at x/c =  0.9588   66
 Side 2  free  transition at x/c =  0.0290   30

   4   rms: 0.2164E+00   max: -.5413E+00   D at   94  2   RLX: 0.598
       a = -7.862      CL = -0.9263
      Cm =  0.0178     CD =  0.01022   =>   CDf =  0.00631    CDp =  0.00392

 Side 1  free  transition at x/c =  0.9672   66
 Side 2  free  transition at x/c =  0.0312   31

   5   rms: 0.4055E+00   max: -.2328E+01   T at   66  1   RLX: 0.215
       a = -7.862      CL = -0.8802
      Cm =  0.0066     CD =  0.01087   =>   CDf =  0.00619    CDp =  0.00469

 MRCHDU: Convergence failed at  30  side 2    Res =  0.5035E+01
 MRCHDU: Convergence failed at  31  side 2    Res =  0.1116E+02
 MRCHDU: Convergence failed at  32  side 2    Res =  0.6069E+01
 MRCHDU: Convergence failed at  33  side 2    Res =  0.6091E+01
 MRCHDU: Convergence failed at  34  side 2    Res =  0.6694E+01
 MRCHDU: Convergence failed at  35  side 2    Res =  0.1211E+02
 MRCHDU: Convergence failed at  36  side 2    Res =  0.1954E+02
 MRCHDU: Convergence failed at  37  side 2    Res =  0.3431E+02
 MRCHDU: Convergence failed at  38  side 2    Res =  0.1089E+03
 MRCHDU: Convergence failed at  39  side 2    Res =  0.1574E+03
 MRCHDU: Convergence failed at  40  side 2    Res =  0.5148E+02
 MRCHDU: Convergence failed at  41  side 2    Res =  0.3748E+02
 MRCHDU: Convergence failed at  42  side 2    Res =  0.2577E+02
 MRCHDU: Convergence failed at  43  side 2    Res =  0.1910E+02
 MRCHDU: Convergence failed at  44  side 2    Res =  0.2077E+02
 MRCHDU: Convergence failed at  45  side 2    Res =  0.2553E+02
 MRCHDU: Convergence failed at  46  side 2    Res =  0.2755E+02
 MRCHDU: Convergence failed at  47  side 2    Res =  0.3065E+02
 MRCHDU: Convergence failed at  48  side 2    Res =  0.3855E+02
 MRCHDU: Convergence failed at  49  side 2    Res =  0.4288E+02
 MRCHDU: Convergence failed at  50  side 2    Res =  0.4690E+02
 MRCHDU: Convergence failed at  51  side 2    Res =  0.3644E+02
 MRCHDU: Convergence failed at  52  side 2    Res =  0.4039E+02
 MRCHDU: Convergence failed at  53  side 2    Res =  0.4414E+02
 MRCHDU: Convergence failed at  54  side 2    Res =  0.4591E+02
 MRCHDU: Convergence failed at  55  side 2    Res =  0.7511E+02
 MRCHDU: Convergence failed at  56  side 2    Res =  0.4167E+02
 MRCHDU: Convergence failed at  57  side 2    Res =  0.8775E+02
 MRCHDU: Convergence failed at  58  side 2    Res =  0.9616E+02
 MRCHDU: Convergence failed at  59  side 2    Res =  0.1057E+03
 MRCHDU: Convergence failed at  60  side 2    Res =  0.1165E+03
 MRCHDU: Convergence failed at  61  side 2    Res =  0.9602E+02
 MRCHDU: Convergence failed at  62  side 2    Res =  0.6334E+02
 MRCHDU: Convergence failed at  63  side 2    Res =  0.6934E+02
 MRCHDU: Convergence failed at  64  side 2    Res =  0.5863E+02
 MRCHDU: Convergence failed at  65  side 2    Res =  0.6402E+02
 MRCHDU: Convergence failed at  66  side 2    Res =  0.7163E+02
 MRCHDU: Convergence failed at  67  side 2    Res =  0.8187E+02
 MRCHDU: Convergence failed at  68  side 2    Res =  0.9622E+02
 MRCHDU: Convergence failed at  69  side 2    Res =  0.1196E+03
 MRCHDU: Convergence failed at  70  side 2    Res =  0.1675E+03
 MRCHDU: Convergence failed at  71  side 2    Res =  0.9731E+02
 MRCHDU: Convergence failed at  72  side 2    Res =  0.6196E+02
 MRCHDU: Convergence failed at  73  side 2    Res =  0.7748E+03
 MRCHDU: Convergence failed at  74  side 2    Res =  0.3929E+03
 MRCHDU: Convergence failed at  75  side 2    Res =  0.2448E+03
 MRCHDU: Convergence failed at  76  side 2    Res =  0.1773E+03
 MRCHDU: Convergence failed at  77  side 2    Res =  0.1399E+03
 MRCHDU: Convergence failed at  78  side 2    Res =  0.1172E+03
 MRCHDU: Convergence failed at  79  side 2    Res =  0.1018E+03
 MRCHDU: Convergence failed at  80  side 2    Res =  0.9061E+02
 MRCHDU: Convergence failed at  81  side 2    Res =  0.5196E+02
 MRCHDU: Convergence failed at  82  side 2    Res =  0.5581E+02
 MRCHDU: Convergence failed at  83  side 2    Res =  0.6029E+02
 MRCHDU: Convergence failed at  84  side 2    Res =  0.5799E+02
 MRCHDU: Convergence failed at  85  side 2    Res =  0.4894E+03
 MRCHDU: Convergence failed at  86  side 2    Res =  0.6111E+02
 MRCHDU: Convergence failed at  87  side 2    Res =  0.7009E+02
 MRCHDU: Convergence failed at  88  side 2    Res =  0.8408E+02
 MRCHDU: Convergence failed at  89  side 2    Res =  0.7916E+02
 MRCHDU: Convergence failed at  90  side 2    Res =  0.1103E+03
 MRCHDU: Convergence failed at  91  side 2    Res =  0.1761E+03
 MRCHDU: Convergence failed at  92  side 2    Res =  0.5353E+03
 Side 1  free  transition at x/c =  0.9815   68
 Side 2  free  transition at x/c =  0.0344   30

   6   rms: 0.1998E+01   max: -.1343E+02   T at    2  1   RLX: 0.037
       a = -7.862      CL = -3.2975
      Cm =  0.7864     CD =  0.00248   =>   CDf =  0.00105    CDp =  0.00144

 MRCHDU: Convergence failed at  32  side 2    Res =  0.4711E-01
 MRCHDU: Convergence failed at  37  side 2    Res =  0.1332E+00
 MRCHDU: Convergence failed at  38  side 2    Res =  0.1308E+00
 MRCHDU: Convergence failed at  39  side 2    Res =  0.1285E+00
 MRCHDU: Convergence failed at  40  side 2    Res =  0.1265E+00
 MRCHDU: Convergence failed at  41  side 2    Res =  0.1246E+00
 MRCHDU: Convergence failed at  42  side 2    Res =  0.1228E+00
 MRCHDU: Convergence failed at  43  side 2    Res =  0.1210E+00
 MRCHDU: Convergence failed at  44  side 2    Res =  0.1191E+00
 MRCHDU: Convergence failed at  45  side 2    Res =  0.1164E+00
 MRCHDU: Convergence failed at  46  side 2    Res =  0.1130E+00
 MRCHDU: Convergence failed at  47  side 2    Res =  0.1090E+00
 MRCHDU: Convergence failed at  48  side 2    Res =  0.1030E+00
 MRCHDU: Convergence failed at  49  side 2    Res =  0.9427E-01
 MRCHDU: Convergence failed at  57  side 2    Res =  0.1931E+00
 MRCHDU: Convergence failed at  58  side 2    Res =  0.1795E+00
 MRCHDU: Convergence failed at  59  side 2    Res =  0.1637E+00
 MRCHDU: Convergence failed at  60  side 2    Res =  0.1425E+00
 MRCHDU: Convergence failed at  61  side 2    Res =  0.1096E+00
 MRCHDU: Convergence failed at  62  side 2    Res =  0.3875E-01
 MRCHDU: Convergence failed at  77  side 2    Res =  0.1549E+00
 MRCHDU: Convergence failed at  78  side 2    Res =  0.1516E+00
 MRCHDU: Convergence failed at  79  side 2    Res =  0.1482E+00
 MRCHDU: Convergence failed at  80  side 2    Res =  0.1447E+00
 MRCHDU: Convergence failed at  81  side 2    Res =  0.1411E+00
 MRCHDU: Convergence failed at  82  side 2    Res =  0.1373E+00
 MRCHDU: Convergence failed at  83  side 2    Res =  0.1333E+00
 MRCHDU: Convergence failed at  84  side 2    Res =  0.1291E+00
 MRCHDU: Convergence failed at  85  side 2    Res =  0.1244E+00
 MRCHDU: Convergence failed at  86  side 2    Res =  0.1187E+00
 MRCHDU: Convergence failed at  87  side 2    Res =  0.1116E+00
 MRCHDU: Convergence failed at  88  side 2    Res =  0.1021E+00
 MRCHDU: Convergence failed at  89  side 2    Res =  0.8898E-01
 MRCHDU: Convergence failed at  90  side 2    Res =  0.1134E-02
 Side 1  free  transition at x/c =  0.9868   69
 Side 2  free  transition at x/c =  0.0349   30

   7   rms: 0.8186E+00   max: 0.1865E+01   D at   96  2   RLX: 0.203
       a = -7.862      CL = -2.1425
      Cm =  0.4277     CD =  0.01155   =>   CDf =  0.00399    CDp =  0.00756

 MRCHDU: Convergence failed at  32  side 2    Res =  0.2948E-02
 MRCHDU: Convergence failed at  42  side 2    Res =  0.2527E+00
 MRCHDU: Convergence failed at  62  side 2    Res =  0.1120E+00
 MRCHDU: Convergence failed at  63  side 2    Res =  0.5464E+00
 MRCHDU: Convergence failed at  89  side 2    Res =  0.5617E+00
 MRCHDU: Convergence failed at  90  side 2    Res =  0.8079E+00
 MRCHDU: Convergence failed at  91  side 2    Res =  0.3898E+00
 MRCHDU: Convergence failed at  92  side 2    Res =  0.3894E+00
 Side 1  free  transition at x/c =  0.9935   69
 Side 2  free  transition at x/c =  0.0355   30

   8   rms: 0.1418E+01   max: -.1076E+02   D at   40  2   RLX: 0.046
       a = -7.862      CL = -1.8348
      Cm =  0.3046     CD =  0.02758   =>   CDf =  0.00389    CDp =  0.02369

 MRCHDU: Convergence failed at  40  side 2    Res =  0.1778E+00
 MRCHDU: Convergence failed at  41  side 2    Res =  0.2510E+00
 MRCHDU: Convergence failed at  42  side 2    Res =  0.2367E+00
 MRCHDU: Convergence failed at  47  side 2    Res =  0.1575E+00
 MRCHDU: Convergence failed at  48  side 2    Res =  0.3996E+00
 MRCHDU: Convergence failed at  49  side 2    Res =  0.6933E+00
 MRCHDU: Convergence failed at  50  side 2    Res =  0.8057E+00
 MRCHDU: Convergence failed at  51  side 2    Res =  0.5140E+00
 MRCHDU: Convergence failed at  52  side 2    Res =  0.4774E+00
 MRCHDU: Convergence failed at  53  side 2    Res =  0.4237E+00
 MRCHDU: Convergence failed at  54  side 2    Res =  0.3595E+00
 MRCHDU: Convergence failed at  55  side 2    Res =  0.2876E+00
 MRCHDU: Convergence failed at  56  side 2    Res =  0.1844E+00
 MRCHDU: Convergence failed at  57  side 2    Res =  0.9593E-01
 Side 1  free  transition at x/c =  0.9932   69
 Side 2  free  transition at x/c =  0.0373   31

   9   rms: 0.6406E+00   max: 0.3196E+01   D at   35  2   RLX: 0.282
       a = -7.862      CL = -1.2463
      Cm =  0.1475     CD =  0.02179   =>   CDf =  0.00297    CDp =  0.01882

 Side 1 forced transition at x/c =  1.0000   70
 Side 2  free  transition at x/c =  0.0355   30

  10   rms: 0.5780E+00   max: -.3342E+01   D at   41  2   RLX: 0.150
       a = -7.862      CL = -1.1358
      Cm =  0.1206     CD =  0.02067   =>   CDf =  0.00364    CDp =  0.01703
 VISCAL:  Convergence failed

.OPERva   c>  
.OPERva   c>  
.OPERva   c>   Calculating wake trajectory ...
 Calculating source influence matrix ...

 Solving BL system ...

 Side 1 forced transition at x/c =  1.0000   70
 Side 2  free  transition at x/c =  0.0364   31

   1   rms: 0.8844E+00   max: -.6188E+01   D at   38  2   RLX: 0.081
       a = -7.034      CL = -1.0707
      Cm =  0.1002     CD =  0.02012   =>   CDf =  0.00401    CDp =  0.01611

 Side 1 forced transition at x/c =  1.0000   70
 Side 2  free  transition at x/c =  0.0380   31

   2   rms: 0.9357E+00   max: -.6425E+01   D at   38  2   RLX: 0.078
       a = -7.034      CL = -1.0303
      Cm =  0.0869     CD =  0.01962   =>   CDf =  0.00401    CDp =  0.01561

 Side 1 forced transition at x/c =  1.0000   70
 Side 2  free  transition at x/c =  0.0393   31

   3   rms: 0.8492E+00   max: 0.5537E+01   D at   36  2   RLX: 0.159
       a = -7.034      CL = -0.9317
      Cm =  0.0594     CD =  0.01823   =>   CDf =  0.00426    CDp =  0.01397

 Side 1 forced transition at x/c =  1.0000   71
 Side 2  free  transition at x/c =  0.0399   30

   4   rms: 0.7378E+00   max: -.3273E+01   C at   71  1   RLX: 0.153
       a = -7.034      CL = -0.8281
      Cm =  0.0337     CD =  0.01568   =>   CDf =  0.00408    CDp =  0.01160

 Side 1 forced transition at x/c =  1.0000   71
 Side 2  free  transition at x/c =  0.0414   30

   5   rms: 0.4710E+00   max: -.2920E+01   D at   46  2   RLX: 0.171
       a = -7.034      CL = -0.8074
      Cm =  0.0264     CD =  0.01582   =>   CDf =  0.00440    CDp =  0.01142

 Side 1 forced transition at x/c =  1.0000   71
 Side 2  free  transition at x/c =  0.0419   31

   6   rms: 0.3598E+01   max: 0.2576E+02   D at   45  2   RLX: 0.034
       a = -7.034      CL = -0.7868
      Cm =  0.0201     CD =  0.01546   =>   CDf =  0.00450    CDp =  0.01096

 Side 1 forced transition at x/c =  1.0000   71
 Side 2  free  transition at x/c =  0.0428   31

   7   rms: 0.9168E+00   max: -.4476E+01   D at   61  2   RLX: 0.112
       a = -7.034      CL = -0.7304
      Cm =  0.0079     CD =  0.01415   =>   CDf =  0.00462    CDp =  0.00953

 MRCHDU: Convergence failed at  58  side 2    Res =  0.1170E+01
 MRCHDU: Convergence failed at  59  side 2    Res =  0.2934E+01
 Side 1 forced transition at x/c =  1.0000   71
 Side 2  free  transition at x/c =  0.0450   31

   8   rms: 0.3439E+00   max: -.1618E+01   D at   35  2   RLX: 0.309
       a = -7.034      CL = -0.7360
      Cm =  0.0029     CD =  0.01375   =>   CDf =  0.00547    CDp =  0.00828

 MRCHDU: Convergence failed at  60  side 2    Res =  0.1880E+00
 MRCHDU: Convergence failed at  74  side 2    Res =  0.1598E+01
 Side 1 forced transition at x/c =  1.0000   71
 Side 2  free  transition at x/c =  0.0452   31

   9   rms: 0.3900E+00   max: -.2519E+01   D at   34  2   RLX: 0.199
       a = -7.034      CL = -0.7461
      Cm =  0.0027     CD =  0.01362   =>   CDf =  0.00528    CDp =  0.00834

 Side 1 forced transition at x/c =  1.0000   71
 Side 2  free  transition at x/c =  0.0452   31

  10   rms: 0.4904E+00   max: 0.4386E+01   C at   71  1   RLX: 0.306
       a = -7.034      CL = -0.7890
      Cm =  0.0033     CD =  0.01161   =>   CDf =  0.00535    CDp =  0.00626
 VISCAL:  Convergence failed

.OPERva   c>  
.OPERva   c>  
.OPERva   c>   Calculating wake trajectory ...
 Calculating source influence matrix ...

 Solving BL system ...

 Side 1 forced transition at x/c =  1.0000   71
 Side 2  free  transition at x/c =  0.0415   31

   1   rms: 0.5810E+00   max: -.3215E+01   D at   45  2   RLX: 0.156
       a = -6.207      CL = -0.8103
      Cm =  0.0086     CD =  0.01220   =>   CDf =  0.00580    CDp =  0.00641

 MRCHDU: Convergence failed at  44  side 2    Res =  0.8536E+00
 Side 1  free  transition at x/c =  0.9774   69
 Side 2  free  transition at x/c =  0.0403   30

   2   rms: 0.2437E+00   max: 0.1510E+01   T at   69  1   RLX: 0.418
       a = -6.207      CL = -0.7937
      Cm =  0.0110     CD =  0.01210   =>   CDf =  0.00604    CDp =  0.00606

 Side 1  free  transition at x/c =  0.9567   68
 Side 2  free  transition at x/c =  0.0413   30

   3   rms: 0.1893E+00   max: 0.8207E+00   C at   30  2   RLX: 0.716
       a = -6.207      CL = -0.6532
      Cm = -0.0087     CD =  0.01056   =>   CDf =  0.00616    CDp =  0.00440

 MRCHDU: Convergence failed at  30  side 2    Res =  0.4074E+01
 Side 1  free  transition at x/c =  0.9653   69
 Side 2  free  transition at x/c =  0.0458   30

   4   rms: 0.1415E+00   max: -.9502E+00   T at   69  1   RLX: 0.526
       a = -6.207      CL = -0.5747
      Cm = -0.0244     CD =  0.01022   =>   CDf =  0.00581    CDp =  0.00440

 MRCHDU: Convergence failed at  71  side 1    Res =  0.1733E+01
 MRCHDU: Convergence failed at  72  side 1    Res =  0.5282E+01
 Side 1  free  transition at x/c =  0.9944   72
 Side 2  free  transition at x/c =  0.0519   31

   5   rms: 0.6676E-01   max: 0.1234E+01   C at   72  1
       a = -6.207      CL = -0.5619
      Cm = -0.0252     CD =  0.00988   =>   CDf =  0.00579    CDp =  0.00409

 MRCHDU: Convergence failed at  70  side 1    Res =  0.5625E-05
 Side 1  free  transition at x/c =  0.9730   70
 Side 2  free  transition at x/c =  0.0534   31

   6   rms: 0.2963E-01   max: -.4960E+00   D at   71  1
       a = -6.207      CL = -0.5622
      Cm = -0.0248     CD =  0.01013   =>   CDf =  0.00574    CDp =  0.00439

 Side 1  free  transition at x/c =  0.9801   70
 Side 2  free  transition at x/c =  0.0534   31

   7   rms: 0.7167E-02   max: 0.6902E-01   D at   72  1
       a = -6.207      CL = -0.5669
      Cm = -0.0237     CD =  0.01010   =>   CDf =  0.00575    CDp =  0.00436

 Side 1  free  transition at x/c =  0.9770   70
 Side 2  free  transition at x/c =  0.0531   31

   8   rms: 0.1517E-02   max: -.1848E-01   D at   71  1
       a = -6.207      CL = -0.5664
      Cm = -0.0239     CD =  0.01010   =>   CDf =  0.00575    CDp =  0.00435

 Side 1  free  transition at x/c =  0.9774   70
 Side 2  free  transition at x/c =  0.0531   31

   9   rms: 0.1533E-04   max: -.1523E-03   D at   70  1
       a = -6.207      CL = -0.5663
      Cm = -0.0239     CD =  0.01010   =>   CDf =  0.00575    CDp =  0.00435
 plradd ia,ip,cpol            5          71  6.76440168E-03

 Point added to stored polar  1
 Save file unspecified or not available
 Dump file unspecified or not available

.OPERva   c>  
.OPERva   c>  
.OPERva   c>   Calculating wake trajectory ...
 Calculating source influence matrix ...

 Solving BL system ...

 Side 1  free  transition at x/c =  0.9774   70
 Side 2  free  transition at x/c =  0.0531   31

   1   rms: 0.1487E+00   max: -.6269E+00   T at   31  2   RLX: 0.798
       a = -5.379      CL = -0.4825
      Cm = -0.0260     CD =  0.00952   =>   CDf =  0.00584    CDp =  0.00368

 Side 1  free  transition at x/c =  0.9633   70
 Side 2  free  transition at x/c =  0.0635   32

   2   rms: 0.4285E-01   max: -.2192E+00   C at   32  2
       a = -5.379      CL = -0.4697
      Cm = -0.0246     CD =  0.00914   =>   CDf =  0.00580    CDp =  0.00335

 Side 1  free  transition at x/c =  0.9572   71
 Side 2  free  transition at x/c =  0.0746   32

   3   rms: 0.2388E-01   max: -.3658E+00   D at   32  2
       a = -5.379      CL = -0.4672
      Cm = -0.0251     CD =  0.00931   =>   CDf =  0.00566    CDp =  0.00365

 Side 1  free  transition at x/c =  0.9591   71
 Side 2  free  transition at x/c =  0.0697   31

   4   rms: 0.1035E-01   max: -.1288E+00   D at   31  2
       a = -5.379      CL = -0.4681
      Cm = -0.0250     CD =  0.00924   =>   CDf =  0.00567    CDp =  0.00357

 Side 1  free  transition at x/c =  0.9588   71
 Side 2  free  transition at x/c =  0.0698   31

   5   rms: 0.4662E-03   max: 0.7855E-02   C at   31  2
       a = -5.379      CL = -0.4680
      Cm = -0.0250     CD =  0.00924   =>   CDf =  0.00568    CDp =  0.00357

 Side 1  free  transition at x/c =  0.9588   71
 Side 2  free  transition at x/c =  0.0698   31

   6   rms: 0.2217E-05   max: -.1849E-04   C at   31  2
       a = -5.379      CL = -0.4680
      Cm = -0.0250     CD =  0.00924   =>   CDf =  0.00568    CDp =  0.00357
 plradd ia,ip,cpol            6          73  8.72555282E-03

 Point added to stored polar  1
 Save file unspecified or not available
 Dump file unspecified or not available

.OPERva   c>  
.OPERva   c>  
.OPERva   c>   Calculating wake trajectory ...
 Calculating source influence matrix ...

 Solving BL system ...

 Side 1  free  transition at x/c =  0.9588   71
 Side 2  free  transition at x/c =  0.0698   31

   1   rms: 0.1506E+00   max: 0.8025E+00   D at   31  2   RLX: 0.924
       a = -4.552      CL = -0.3790
      Cm = -0.0254     CD =  0.00861   =>   CDf =  0.00574    CDp =  0.00287

 Side 1  free  transition at x/c =  0.9344   70
 Side 2  free  transition at x/c =  0.0889   32

   2   rms: 0.3096E-01   max: 0.3142E+00   D at   71  1
       a = -4.552      CL = -0.3815
      Cm = -0.0233     CD =  0.00852   =>   CDf =  0.00564    CDp =  0.00288

 Side 1  free  transition at x/c =  0.9268   70
 Side 2  free  transition at x/c =  0.0956   33

   3   rms: 0.4728E-02   max: -.6027E-01   D at   32  2
       a = -4.552      CL = -0.3800
      Cm = -0.0236     CD =  0.00855   =>   CDf =  0.00563    CDp =  0.00292

 Side 1  free  transition at x/c =  0.9283   70
 Side 2  free  transition at x/c =  0.0958   33

   4   rms: 0.3709E-03   max: -.5598E-02   D at   33  2
       a = -4.552      CL = -0.3800
      Cm = -0.0236     CD =  0.00855   =>   CDf =  0.00561    CDp =  0.00293

 Side 1  free  transition at x/c =  0.9283   70
 Side 2  free  transition at x/c =  0.0956   33

   5   rms: 0.6645E-05   max: -.1255E-03   D at   33  2
       a = -4.552      CL = -0.3800
      Cm = -0.0236     CD =  0.00855   =>   CDf =  0.00562    CDp =  0.00293
 plradd ia,ip,cpol            7          74  1.09447287E-02

 Point added to stored polar  1
 Save file unspecified or not available
 Dump file unspecified or not available

.OPERva   c>  
.OPERva   c>  
.OPERva   c>   Calculating wake trajectory ...
 Calculating source influence matrix ...

 Solving BL system ...

 Side 1  free  transition at x/c =  0.9283   70
 Side 2  free  transition at x/c =  0.0956   33

   1   rms: 0.1649E+00   max: 0.1185E+01   D at   33  2   RLX: 0.952
       a = -3.724      CL = -0.2983
      Cm = -0.0219     CD =  0.00774   =>   CDf =  0.00566    CDp =  0.00208

 Side 1  free  transition at x/c =  0.8843   68
 Side 2  free  transition at x/c =  0.1627   36

   2   rms: 0.3166E-01   max: 0.3182E+00   D at   32  2
       a = -3.724      CL = -0.2946
      Cm = -0.0218     CD =  0.00773   =>   CDf =  0.00547    CDp =  0.00226

 Side 1  free  transition at x/c =  0.8867   68
 Side 2  free  transition at x/c =  0.1525   36

   3   rms: 0.1239E-01   max: -.1163E+00   D at   36  2
       a = -3.724      CL = -0.2932
      Cm = -0.0220     CD =  0.00790   =>   CDf =  0.00548    CDp =  0.00242

 Side 1  free  transition at x/c =  0.8847   68
 Side 2  free  transition at x/c =  0.1440   35

   4   rms: 0.1899E-02   max: -.2677E-01   D at   36  2
       a = -3.724      CL = -0.2933
      Cm = -0.0220     CD =  0.00788   =>   CDf =  0.00551    CDp =  0.00238

 Side 1  free  transition at x/c =  0.8847   68
 Side 2  free  transition at x/c =  0.1441   35

   5   rms: 0.6473E-04   max: 0.1246E-02   C at   35  2
       a = -3.724      CL = -0.2933
      Cm = -0.0220     CD =  0.00788   =>   CDf =  0.00551    CDp =  0.00238
 plradd ia,ip,cpol            8          75  1.34348273E-02

 Point added to stored polar  1
 Save file unspecified or not available
 Dump file unspecified or not available

.OPERva   c>  
.OPERva   c>  
.OPERva   c>   Calculating wake trajectory ...
 Calculating source influence matrix ...

 Solving BL system ...

 Side 1  free  transition at x/c =  0.8847   68
 Side 2  free  transition at x/c =  0.1440   35

   1   rms: 0.1975E+00   max: -.2558E+01   C at   35  2   RLX: 0.195
       a = -2.897      CL = -0.2765
      Cm = -0.0216     CD =  0.00774   =>   CDf =  0.00551    CDp =  0.00223

 Side 1  free  transition at x/c =  0.8702   67
 Side 2  free  transition at x/c =  0.1516   35

   2   rms: 0.1161E+00   max: 0.3989E+00   D at   35  2
       a = -2.897      CL = -0.2031
      Cm = -0.0210     CD =  0.00761   =>   CDf =  0.00559    CDp =  0.00202

 Side 1  free  transition at x/c =  0.8174   65
 Side 2  free  transition at x/c =  0.2132   38

   3   rms: 0.4827E-01   max: -.5836E+00   C at   38  2   RLX: 0.857
       a = -2.897      CL = -0.2074
      Cm = -0.0204     CD =  0.00726   =>   CDf =  0.00555    CDp =  0.00171

 Side 1  free  transition at x/c =  0.8232   66
 Side 2  free  transition at x/c =  0.2209   39

   4   rms: 0.5327E-01   max: -.6786E+00   D at   38  2   RLX: 0.737
       a = -2.897      CL = -0.2074
      Cm = -0.0203     CD =  0.00719   =>   CDf =  0.00552    CDp =  0.00167

 Side 1  free  transition at x/c =  0.8236   66
 Side 2  free  transition at x/c =  0.2755   42

   5   rms: 0.4823E-01   max: -.1110E+01   C at   42  2   RLX: 0.450
       a = -2.897      CL = -0.2093
      Cm = -0.0202     CD =  0.00694   =>   CDf =  0.00519    CDp =  0.00175

 Side 1  free  transition at x/c =  0.8236   66
 Side 2  free  transition at x/c =  0.2827   43

   6   rms: 0.1703E-01   max: -.2929E+00   C at   43  2
       a = -2.897      CL = -0.2095
      Cm = -0.0201     CD =  0.00689   =>   CDf =  0.00515    CDp =  0.00174

 Side 1  free  transition at x/c =  0.8236   66
 Side 2  free  transition at x/c =  0.2855   43

   7   rms: 0.5085E-02   max: -.9778E-01   C at   43  2
       a = -2.897      CL = -0.2092
      Cm = -0.0202     CD =  0.00693   =>   CDf =  0.00515    CDp =  0.00179

 Side 1  free  transition at x/c =  0.8236   66
 Side 2  free  transition at x/c =  0.2879   43

   8   rms: 0.3739E-04   max: 0.6179E-03   D at   43  2
       a = -2.897      CL = -0.2092
      Cm = -0.0202     CD =  0.00693   =>   CDf =  0.00513    CDp =  0.00180
 plradd ia,ip,cpol            9          76  1.62166134E-02

 Point added to stored polar  1
 Save file unspecified or not available
 Dump file unspecified or not available

.OPERva   c>  
.OPERva   c>  
.OPERva   c>   Calculating wake trajectory ...
 Calculating source influence matrix ...

 Solving BL system ...

 Side 1  free  transition at x/c =  0.8236   66
 Side 2  free  transition at x/c =  0.2879   43

   1   rms: 0.4233E+00   max: -.8695E+01   C at   43  2   RLX: 0.058
       a = -2.069      CL = -0.2045
      Cm = -0.0201     CD =  0.00686   =>   CDf =  0.00513    CDp =  0.00173

 Side 1  free  transition at x/c =  0.8208   65
 Side 2  free  transition at x/c =  0.2982   43

   2   rms: 0.3463E+00   max: -.7621E+01   C at   43  2   RLX: 0.066
       a = -2.069      CL = -0.1987
      Cm = -0.0200     CD =  0.00684   =>   CDf =  0.00511    CDp =  0.00173

 Side 1  free  transition at x/c =  0.8173   65
 Side 2  free  transition at x/c =  0.3124   44

   3   rms: 0.2251E+00   max: -.4301E+01   C at   44  2   RLX: 0.116
       a = -2.069      CL = -0.1896
      Cm = -0.0199     CD =  0.00676   =>   CDf =  0.00506    CDp =  0.00169

 Side 1  free  transition at x/c =  0.8109   65
 Side 2  free  transition at x/c =  0.3352   46

   4   rms: 0.2390E+00   max: -.3870E+01   C at   46  2   RLX: 0.129
       a = -2.069      CL = -0.1819
      Cm = -0.0197     CD =  0.00660   =>   CDf =  0.00503    CDp =  0.00158

 Side 1  free  transition at x/c =  0.8050   66
 Side 2  free  transition at x/c =  0.3470   45

   5   rms: 0.6906E+01   max: -.1241E+03   D at    2  1   RLX: 0.004
       a = -2.069      CL = -0.1812
      Cm = -0.0197     CD =  0.00667   =>   CDf =  0.00499    CDp =  0.00167

 Side 1  free  transition at x/c =  0.8049   66
 Side 2  free  transition at x/c =  0.3473   45

   6   rms: 0.1003E+01   max: 0.1828E+02   D at    2  1   RLX: 0.082
       a = -2.069      CL = -0.1763
      Cm = -0.0196     CD =  0.00665   =>   CDf =  0.00499    CDp =  0.00166

 Side 1  free  transition at x/c =  0.8024   65
 Side 2  free  transition at x/c =  0.3545   46

   7   rms: 0.1766E+00   max: -.3099E+01   C at   46  2   RLX: 0.161
       a = -2.069      CL = -0.1676
      Cm = -0.0195     CD =  0.00653   =>   CDf =  0.00497    CDp =  0.00156

 Side 1  free  transition at x/c =  0.7962   65
 Side 2  free  transition at x/c =  0.3653   46

   8   rms: 0.1199E+00   max: -.2158E+01   C at   46  2   RLX: 0.232
       a = -2.069      CL = -0.1564
      Cm = -0.0195     CD =  0.00653   =>   CDf =  0.00495    CDp =  0.00158

 Side 1  free  transition at x/c =  0.7886   65
 Side 2  free  transition at x/c =  0.3819   47

   9   rms: 0.7236E-01   max: -.9053E+00   C at   47  2   RLX: 0.552
       a = -2.069      CL = -0.1369
      Cm = -0.0192     CD =  0.00650   =>   CDf =  0.00493    CDp =  0.00157

 Side 1  free  transition at x/c =  0.7768   64
 Side 2  free  transition at x/c =  0.4211   50

  10   rms: 0.4543E-01   max: -.6500E+00   C at   50  2   RLX: 0.769
       a = -2.069      CL = -0.1262
      Cm = -0.0189     CD =  0.00625   =>   CDf =  0.00482    CDp =  0.00143
 VISCAL:  Convergence failed

.OPERva   c>  
.OPERva   c>  
.OPERva   c>   Calculating wake trajectory ...
 Calculating source influence matrix ...

 Solving BL system ...

 Side 1  free  transition at x/c =  0.7685   63
 Side 2  free  transition at x/c =  0.4329   50

   1   rms: 0.1952E+00   max: -.2892E+01   C at   50  2   RLX: 0.173
       a = -1.241      CL = -0.1090
      Cm = -0.0189     CD =  0.00627   =>   CDf =  0.00482    CDp =  0.00145

 Side 1  free  transition at x/c =  0.7551   63
 Side 2  free  transition at x/c =  0.4514   51

   2   rms: 0.1406E+00   max: 0.1174E+01   C at   63  1   RLX: 0.540
       a = -1.241      CL = -0.0670
      Cm = -0.0185     CD =  0.00632   =>   CDf =  0.00483    CDp =  0.00149

 Side 1  free  transition at x/c =  0.7226   62
 Side 2  free  transition at x/c =  0.5147   54

   3   rms: 0.9894E-01   max: -.1748E+01   C at   54  2   RLX: 0.286
       a = -1.241      CL = -0.0601
      Cm = -0.0176     CD =  0.00603   =>   CDf =  0.00471    CDp =  0.00132

 Side 1  free  transition at x/c =  0.7165   61
 Side 2  free  transition at x/c =  0.5216   55

   4   rms: 0.5817E-01   max: -.6218E+00   C at   55  2   RLX: 0.804
       a = -1.241      CL = -0.0385
      Cm = -0.0179     CD =  0.00593   =>   CDf =  0.00473    CDp =  0.00120

 Side 1  free  transition at x/c =  0.7008   61
 Side 2  free  transition at x/c =  0.5379   55

   5   rms: 0.1438E-01   max: -.2624E+00   C at   55  2
       a = -1.241      CL = -0.0329
      Cm = -0.0180     CD =  0.00604   =>   CDf =  0.00474    CDp =  0.00131

 Side 1  free  transition at x/c =  0.7000   60
 Side 2  free  transition at x/c =  0.5504   56

   6   rms: 0.4335E-02   max: 0.9373E-01   C at   56  2
       a = -1.241      CL = -0.0332
      Cm = -0.0179     CD =  0.00601   =>   CDf =  0.00467    CDp =  0.00134

 Side 1  free  transition at x/c =  0.6999   60
 Side 2  free  transition at x/c =  0.5476   56

   7   rms: 0.1064E-03   max: -.2251E-02   C at   56  2
       a = -1.241      CL = -0.0332
      Cm = -0.0180     CD =  0.00601   =>   CDf =  0.00468    CDp =  0.00133

 Side 1  free  transition at x/c =  0.6999   60
 Side 2  free  transition at x/c =  0.5476   56

   8   rms: 0.7078E-05   max: 0.8260E-04   D at    4  2
       a = -1.241      CL = -0.0332
      Cm = -0.0180     CD =  0.00601   =>   CDf =  0.00468    CDp =  0.00133
 plradd ia,ip,cpol           10          78  3.09928972E-02

 Point added to stored polar  1
 Save file unspecified or not available
 Dump file unspecified or not available

.OPERva   c>  
.OPERva   c>  
.OPERva   c>   Calculating wake trajectory ...
 Calculating source influence matrix ...

 Solving BL system ...

 Side 1  free  transition at x/c =  0.6999   60
 Side 2  free  transition at x/c =  0.5476   56

   1   rms: 0.1987E+00   max: -.2940E+01   C at   56  2   RLX: 0.170
       a = -0.414      CL = -0.0176
      Cm = -0.0179     CD =  0.00596   =>   CDf =  0.00468    CDp =  0.00127

 Side 1  free  transition at x/c =  0.6869   61
 Side 2  free  transition at x/c =  0.5567   56

   2   rms: 0.1599E+00   max: -.1326E+01   C at   56  2   RLX: 0.377
       a = -0.414      CL =  0.0100
      Cm = -0.0176     CD =  0.00595   =>   CDf =  0.00473    CDp =  0.00122

 Side 1  free  transition at x/c =  0.6662   60
 Side 2  free  transition at x/c =  0.5742   57

   3   rms: 0.1054E+00   max: -.8828E+00   C at   57  2   RLX: 0.566
       a = -0.414      CL =  0.0359
      Cm = -0.0173     CD =  0.00594   =>   CDf =  0.00479    CDp =  0.00116

 Side 1  free  transition at x/c =  0.6467   58
 Side 2  free  transition at x/c =  0.6056   58

   4   rms: 0.6449E-01   max: -.1243E+01   C at   58  2   RLX: 0.402
       a = -0.414      CL =  0.0443
      Cm = -0.0172     CD =  0.00593   =>   CDf =  0.00470    CDp =  0.00124

 Side 1  free  transition at x/c =  0.6407   59
 Side 2  free  transition at x/c =  0.6164   58

   5   rms: 0.4509E-01   max: -.8205E+00   C at   58  2   RLX: 0.609
       a = -0.414      CL =  0.0518
      Cm = -0.0171     CD =  0.00590   =>   CDf =  0.00468    CDp =  0.00122

 Side 1  free  transition at x/c =  0.6350   59
 Side 2  free  transition at x/c =  0.6270   59

   6   rms: 0.2865E-01   max: -.4171E+00   C at   59  2
       a = -0.414      CL =  0.0560
      Cm = -0.0170     CD =  0.00585   =>   CDf =  0.00469    CDp =  0.00115

 Side 1  free  transition at x/c =  0.6322   59
 Side 2  free  transition at x/c =  0.6437   60

   7   rms: 0.8793E-02   max: -.1435E+00   C at   60  2
       a = -0.414      CL =  0.0563
      Cm = -0.0170     CD =  0.00588   =>   CDf =  0.00464    CDp =  0.00123

 Side 1  free  transition at x/c =  0.6323   59
 Side 2  free  transition at x/c =  0.6475   60

   8   rms: 0.1346E-02   max: 0.2622E-01   C at   60  2
       a = -0.414      CL =  0.0563
      Cm = -0.0170     CD =  0.00588   =>   CDf =  0.00460    CDp =  0.00128

 Side 1  free  transition at x/c =  0.6323   59
 Side 2  free  transition at x/c =  0.6468   60

   9   rms: 0.6949E-05   max: -.1378E-03   D at   61  2
       a = -0.414      CL =  0.0563
      Cm = -0.0170     CD =  0.00588   =>   CDf =  0.00460    CDp =  0.00127
 plradd ia,ip,cpol           11          80  0.16562672    

 Point added to stored polar  1
 Save file unspecified or not available
 Dump file unspecified or not available

.OPERva   c>  
.OPERva   c>  
.OPERva   c>   Calculating wake trajectory ...
 Calculating source influence matrix ...

 Solving BL system ...

 Side 1  free  transition at x/c =  0.6323   59
 Side 2  free  transition at x/c =  0.6468   60

   1   rms: 0.2243E+00   max: -.2897E+01   C at   60  2   RLX: 0.173
       a =  0.414      CL =  0.0710
      Cm = -0.0167     CD =  0.00587   =>   CDf =  0.00460    CDp =  0.00126

 Side 1  free  transition at x/c =  0.6199   58
 Side 2  free  transition at x/c =  0.6598   60

   2   rms: 0.1499E+00   max: 0.1761E+01   C at   58  1   RLX: 0.559
       a =  0.414      CL =  0.1141
      Cm = -0.0167     CD =  0.00600   =>   CDf =  0.00462    CDp =  0.00138

 Side 1  free  transition at x/c =  0.5863   56
 Side 2  free  transition at x/c =  0.7119   63

   3   rms: 0.8353E+01   max: 0.1477E+03   T at    2  2   RLX: 0.008
       a =  0.414      CL =  0.1131
      Cm = -0.0161     CD =  0.00589   =>   CDf =  0.00458    CDp =  0.00131

 Side 1  free  transition at x/c =  0.5861   57
 Side 2  free  transition at x/c =  0.7121   62

   4   rms: 0.3205E+00   max: 0.5671E+01   D at    2  1   RLX: 0.229
       a =  0.414      CL =  0.1209
      Cm = -0.0161     CD =  0.00591   =>   CDf =  0.00460    CDp =  0.00131

 Side 1  free  transition at x/c =  0.5806   57
 Side 2  free  transition at x/c =  0.7268   63

   5   rms: 0.5200E-01   max: -.6194E+00   C at   63  2   RLX: 0.807
       a =  0.414      CL =  0.1398
      Cm = -0.0158     CD =  0.00587   =>   CDf =  0.00453    CDp =  0.00134

 Side 1  free  transition at x/c =  0.5652   56
 Side 2  free  transition at x/c =  0.7423   64

   6   rms: 0.1084E-01   max: -.1391E+00   C at   64  2
       a =  0.414      CL =  0.1450
      Cm = -0.0159     CD =  0.00585   =>   CDf =  0.00453    CDp =  0.00131

 Side 1  free  transition at x/c =  0.5626   56
 Side 2  free  transition at x/c =  0.7473   64

   7   rms: 0.8006E-03   max: -.1698E-01   C at   64  2
       a =  0.414      CL =  0.1451
      Cm = -0.0159     CD =  0.00585   =>   CDf =  0.00453    CDp =  0.00132

 Side 1  free  transition at x/c =  0.5626   56
 Side 2  free  transition at x/c =  0.7477   64

   8   rms: 0.2831E-05   max: 0.4590E-04   C at   64  2
       a =  0.414      CL =  0.1451
      Cm = -0.0159     CD =  0.00585   =>   CDf =  0.00453    CDp =  0.00132
 plradd ia,ip,cpol           12          81  0.15144801    

 Point added to stored polar  1
 Save file unspecified or not available
 Dump file unspecified or not available

.OPERva   c>  
.OPERva   c>  
.OPERva   c>   Calculating wake trajectory ...
 Calculating source influence matrix ...

 Solving BL system ...

 Side 1  free  transition at x/c =  0.5626   56
 Side 2  free  transition at x/c =  0.7477   64

   1   rms: 0.1897E+00   max: -.1744E+01   C at   64  2   RLX: 0.287
       a =  1.241      CL =  0.1704
      Cm = -0.0156     CD =  0.00595   =>   CDf =  0.00453    CDp =  0.00142

 Side 1  free  transition at x/c =  0.5409   54
 Side 2  free  transition at x/c =  0.7785   66

   2   rms: 0.1141E+00   max: 0.9979E+00   C at   54  1
       a =  1.241      CL =  0.2365
      Cm = -0.0152     CD =  0.00601   =>   CDf =  0.00449    CDp =  0.00152

 Side 1  free  transition at x/c =  0.4862   52
 Side 2  free  transition at x/c =  0.8572   70

   3   rms: 0.3726E-01   max: 0.6712E+00   D at   65  2
       a =  1.241      CL =  0.2321
      Cm = -0.0142     CD =  0.00595   =>   CDf =  0.00450    CDp =  0.00145

 Side 1  free  transition at x/c =  0.4931   52
 Side 2  free  transition at x/c =  0.8497   69

   4   rms: 0.1036E-01   max: -.1301E+00   D at   69  2
       a =  1.241      CL =  0.2326
      Cm = -0.0143     CD =  0.00593   =>   CDf =  0.00446    CDp =  0.00147

 Side 1  free  transition at x/c =  0.4925   52
 Side 2  free  transition at x/c =  0.8401   69

   5   rms: 0.1215E-02   max: -.2425E-01   D at   69  2
       a =  1.241      CL =  0.2330
      Cm = -0.0144     CD =  0.00595   =>   CDf =  0.00448    CDp =  0.00147

 Side 1  free  transition at x/c =  0.4925   52
 Side 2  free  transition at x/c =  0.8393   69

   6   rms: 0.2038E-04   max: 0.3638E-03   D at   70  2
       a =  1.241      CL =  0.2330
      Cm = -0.0144     CD =  0.00595   =>   CDf =  0.00448    CDp =  0.00147
 plradd ia,ip,cpol           13          82  0.12428796    

 Point added to stored polar  1
 Save file unspecified or not available
 Dump file unspecified or not available

.OPERva   c>  
.OPERva   c>  
.OPERva   c>   Calculating wake trajectory ...
 Calculating source influence matrix ...

 Solving BL system ...

 Side 1  free  transition at x/c =  0.4925   52
 Side 2  free  transition at x/c =  0.8393   69

   1   rms: 0.1649E+00   max: 0.1509E+01   C at   52  1   RLX: 0.357
       a =  2.069      CL =  0.2649
      Cm = -0.0140     CD =  0.00596   =>   CDf =  0.00445    CDp =  0.00151

 Side 1  free  transition at x/c =  0.4638   52
 Side 2  free  transition at x/c =  0.8527   68

   2   rms: 0.1028E+00   max: 0.9630E+00   C at   52  1   RLX: 0.919
       a =  2.069      CL =  0.3196
      Cm = -0.0141     CD =  0.00640   =>   CDf =  0.00460    CDp =  0.00180

 Side 1  free  transition at x/c =  0.4234   49
 Side 2  free  transition at x/c =  0.9252   73

   3   rms: 0.3515E-01   max: 0.4504E+00   D at   68  2
       a =  2.069      CL =  0.3187
      Cm = -0.0125     CD =  0.00626   =>   CDf =  0.00454    CDp =  0.00172

 Side 1  free  transition at x/c =  0.4246   49
 Side 2  free  transition at x/c =  0.9066   72

   4   rms: 0.1667E-01   max: -.3307E+00   D at   72  2
       a =  2.069      CL =  0.3215
      Cm = -0.0131     CD =  0.00628   =>   CDf =  0.00456    CDp =  0.00172

 Side 1  free  transition at x/c =  0.4234   49
 Side 2  free  transition at x/c =  0.8996   71

   5   rms: 0.2569E-02   max: -.4402E-01   D at   72  2
       a =  2.069      CL =  0.3214
      Cm = -0.0131     CD =  0.00628   =>   CDf =  0.00458    CDp =  0.00170

 Side 1  free  transition at x/c =  0.4235   49
 Side 2  free  transition at x/c =  0.8976   71

   6   rms: 0.8178E-04   max: -.1409E-02   C at   71  2
       a =  2.069      CL =  0.3214
      Cm = -0.0131     CD =  0.00628   =>   CDf =  0.00458    CDp =  0.00170
 plradd ia,ip,cpol           14          83  0.11146311    

 Point added to stored polar  1
 Save file unspecified or not available
 Dump file unspecified or not available

.OPERva   c>  
.OPERva   c>  
.OPERva   c>   Calculating wake trajectory ...
 Calculating source influence matrix ...

 Solving BL system ...

 Side 1  free  transition at x/c =  0.4235   49
 Side 2  free  transition at x/c =  0.8976   71

   1   rms: 0.1549E+00   max: 0.1574E+01   C at   49  1   RLX: 0.596
       a =  2.897      CL =  0.3746
      Cm = -0.0123     CD =  0.00642   =>   CDf =  0.00454    CDp =  0.00188

 Side 1  free  transition at x/c =  0.3805   48
 Side 2  free  transition at x/c =  0.9201   71

   2   rms: 0.5877E-01   max: -.3557E+00   D at   48  1
       a =  2.897      CL =  0.4091
      Cm = -0.0117     CD =  0.00675   =>   CDf =  0.00472    CDp =  0.00204

 Side 1  free  transition at x/c =  0.3582   47
 Side 2  free  transition at x/c =  0.9459   73

   3   rms: 0.1243E-01   max: 0.1720E+00   C at   73  2
       a =  2.897      CL =  0.4084
      Cm = -0.0114     CD =  0.00674   =>   CDf =  0.00476    CDp =  0.00199

 Side 1  free  transition at x/c =  0.3602   47
 Side 2  free  transition at x/c =  0.9429   73

   4   rms: 0.2391E-02   max: -.2221E-01   D at    2  2
       a =  2.897      CL =  0.4091
      Cm = -0.0116     CD =  0.00675   =>   CDf =  0.00471    CDp =  0.00204

 Side 1  free  transition at x/c =  0.3595   48
 Side 2  free  transition at x/c =  0.9423   72

   5   rms: 0.7611E-03   max: -.1311E-01   T at    2  1
       a =  2.897      CL =  0.4091
      Cm = -0.0116     CD =  0.00675   =>   CDf =  0.00475    CDp =  0.00200

 Side 1  free  transition at x/c =  0.3595   48
 Side 2  free  transition at x/c =  0.9423   72

   6   rms: 0.2044E-03   max: -.2471E-02   D at    4  1
       a =  2.897      CL =  0.4091
      Cm = -0.0116     CD =  0.00675   =>   CDf =  0.00475    CDp =  0.00200

 Side 1  free  transition at x/c =  0.3595   48
 Side 2  free  transition at x/c =  0.9423   72

   7   rms: 0.5659E-05   max: 0.6693E-04   D at    4  1
       a =  2.897      CL =  0.4091
      Cm = -0.0116     CD =  0.00675   =>   CDf =  0.00475    CDp =  0.00200
 plradd ia,ip,cpol           15          85  7.73145780E-02

 Point added to stored polar  1
 Save file unspecified or not available
 Dump file unspecified or not available

.OPERva   c>  
.OPERva   c>  
.OPERva   c>   Calculating wake trajectory ...
 Calculating source influence matrix ...

 Solving BL system ...

 Side 1  free  transition at x/c =  0.3595   48
 Side 2  free  transition at x/c =  0.9423   72

   1   rms: 0.1781E+00   max: 0.1419E+01   C at   48  1   RLX: 0.395
       a =  3.724      CL =  0.4443
      Cm = -0.0111     CD =  0.00704   =>   CDf =  0.00475    CDp =  0.00229

 Side 1  free  transition at x/c =  0.3372   46
 Side 2  free  transition at x/c =  0.9520   72

   2   rms: 0.8410E-01   max: 0.5127E+00   C at   46  1
       a =  3.724      CL =  0.4929
      Cm = -0.0093     CD =  0.00722   =>   CDf =  0.00480    CDp =  0.00242

 MRCHDU: Convergence failed at  74  side 2    Res =  0.2266E+01
 MRCHDU: Convergence failed at  75  side 2    Res =  0.2025E+01
 Side 1  free  transition at x/c =  0.3060   45
 Side 2  free  transition at x/c =  0.9827   74

   3   rms: 0.5160E-01   max: 0.7294E+00   C at   74  2
       a =  3.724      CL =  0.4962
      Cm = -0.0099     CD =  0.00724   =>   CDf =  0.00496    CDp =  0.00228

 Side 1  free  transition at x/c =  0.3068   45
 Side 2  free  transition at x/c =  0.9714   73

   4   rms: 0.1553E-01   max: -.2465E+00   D at   73  2
       a =  3.724      CL =  0.5017
      Cm = -0.0113     CD =  0.00732   =>   CDf =  0.00496    CDp =  0.00237

 Side 1  free  transition at x/c =  0.3070   45
 Side 2  free  transition at x/c =  0.9726   73

   5   rms: 0.2794E-02   max: 0.3015E-01   C at   73  2
       a =  3.724      CL =  0.5027
      Cm = -0.0115     CD =  0.00733   =>   CDf =  0.00495    CDp =  0.00238

 Side 1  free  transition at x/c =  0.3067   45
 Side 2  free  transition at x/c =  0.9716   73

   6   rms: 0.9785E-04   max: -.1627E-02   D at   73  2
       a =  3.724      CL =  0.5027
      Cm = -0.0115     CD =  0.00733   =>   CDf =  0.00495    CDp =  0.00238
 plradd ia,ip,cpol           16          86  4.45469953E-02

 Point added to stored polar  1
 Save file unspecified or not available
 Dump file unspecified or not available

.OPERva   c>  
.OPERva   c>  
.OPERva   c>   Calculating wake trajectory ...
 Calculating source influence matrix ...

 Solving BL system ...

 Side 1  free  transition at x/c =  0.3067   45
 Side 2  free  transition at x/c =  0.9717   73

   1   rms: 0.1503E+00   max: 0.4429E+00   D at   75  2
       a =  4.552      CL =  0.6138
      Cm = -0.0153     CD =  0.00774   =>   CDf =  0.00492    CDp =  0.00282

 Side 1  free  transition at x/c =  0.2638   44
 Side 2  free  transition at x/c =  0.9815   72

   2   rms: 0.1736E+00   max: 0.1956E+01   C at   72  2   RLX: 0.263
       a =  4.552      CL =  0.5830
      Cm = -0.0088     CD =  0.00829   =>   CDf =  0.00515    CDp =  0.00314

 MRCHDU: Convergence failed at  74  side 2    Res =  0.2642E+01
 Side 1  free  transition at x/c =  0.2673   44
 Side 2 forced transition at x/c =  1.0000   74

   3   rms: 0.1923E+00   max: 0.2740E+01   C at   74  2   RLX: 0.547
       a =  4.552      CL =  0.6482
      Cm = -0.0229     CD =  0.00760   =>   CDf =  0.00513    CDp =  0.00248

 Side 1  free  transition at x/c =  0.2614   44
 Side 2  free  transition at x/c =  0.9591   71

   4   rms: 0.9328E-01   max: -.7939E+00   D at   74  2   RLX: 0.630
       a =  4.552      CL =  0.6195
      Cm = -0.0172     CD =  0.00845   =>   CDf =  0.00517    CDp =  0.00328

 Side 1  free  transition at x/c =  0.2656   44
 Side 2  free  transition at x/c =  0.9777   72

   5   rms: 0.3836E-01   max: -.4682E+00   D at   74  2
       a =  4.552      CL =  0.6008
      Cm = -0.0126     CD =  0.00794   =>   CDf =  0.00512    CDp =  0.00282

 Side 1  free  transition at x/c =  0.2685   44
 Side 2  free  transition at x/c =  0.9951   74

   6   rms: 0.3782E-01   max: 0.6379E+00   C at   74  2
       a =  4.552      CL =  0.6060
      Cm = -0.0137     CD =  0.00786   =>   CDf =  0.00511    CDp =  0.00275

 Side 1  free  transition at x/c =  0.2679   44
 Side 2  free  transition at x/c =  0.9903   73

   7   rms: 0.1567E-01   max: 0.1832E+00   D at   74  2
       a =  4.552      CL =  0.6155
      Cm = -0.0159     CD =  0.00792   =>   CDf =  0.00511    CDp =  0.00281

 Side 1  free  transition at x/c =  0.2667   44
 Side 2  free  transition at x/c =  0.9832   73

   8   rms: 0.8485E-02   max: -.1028E+00   D at   74  2
       a =  4.552      CL =  0.6137
      Cm = -0.0155     CD =  0.00792   =>   CDf =  0.00512    CDp =  0.00280

 Side 1  free  transition at x/c =  0.2669   44
 Side 2  free  transition at x/c =  0.9850   73

   9   rms: 0.4429E-03   max: -.6288E-02   D at   73  2
       a =  4.552      CL =  0.6136
      Cm = -0.0155     CD =  0.00793   =>   CDf =  0.00512    CDp =  0.00281

 Side 1  free  transition at x/c =  0.2669   44
 Side 2  free  transition at x/c =  0.9851   73

  10   rms: 0.1334E-05   max: 0.1300E-04   D at   74  2
       a =  4.552      CL =  0.6136
      Cm = -0.0155     CD =  0.00793   =>   CDf =  0.00512    CDp =  0.00281
 plradd ia,ip,cpol           17          87  2.43983772E-02

 Point added to stored polar  1
 Save file unspecified or not available
 Dump file unspecified or not available

.OPERva   c>  
.OPERva   c>  
.OPERva   c>   Calculating wake trajectory ...
 Calculating source influence matrix ...

 Solving BL system ...

 Side 1  free  transition at x/c =  0.2669   44
 Side 2  free  transition at x/c =  0.9851   73

   1   rms: 0.1613E+00   max: 0.9130E+00   C at   44  1   RLX: 0.681
       a =  5.379      CL =  0.6960
      Cm = -0.0199     CD =  0.00834   =>   CDf =  0.00508    CDp =  0.00326

 Side 1  free  transition at x/c =  0.2417   43
 Side 2  free  transition at x/c =  0.9889   72

   2   rms: 0.4854E-01   max: -.3251E+00   C at   43  1
       a =  5.379      CL =  0.7309
      Cm = -0.0211     CD =  0.00849   =>   CDf =  0.00526    CDp =  0.00323

 Side 1  free  transition at x/c =  0.2345   43
 Side 2  free  transition at x/c =  0.9926   72

   3   rms: 0.3252E-02   max: -.3214E-01   D at   73  2
       a =  5.379      CL =  0.7293
      Cm = -0.0207     CD =  0.00852   =>   CDf =  0.00525    CDp =  0.00327

 Side 1  free  transition at x/c =  0.2350   43
 Side 2  free  transition at x/c =  0.9934   72

   4   rms: 0.1237E-03   max: 0.1374E-02   C at   72  2
       a =  5.379      CL =  0.7292
      Cm = -0.0207     CD =  0.00853   =>   CDf =  0.00525    CDp =  0.00328

 Side 1  free  transition at x/c =  0.2350   43
 Side 2  free  transition at x/c =  0.9935   72

   5   rms: 0.9063E-06   max: -.1132E-04   T at   72  2
       a =  5.379      CL =  0.7292
      Cm = -0.0207     CD =  0.00853   =>   CDf =  0.00525    CDp =  0.00328
 plradd ia,ip,cpol           18          88  1.45550417E-02

 Point added to stored polar  1
 Save file unspecified or not available
 Dump file unspecified or not available

.OPERva   c>  
.OPERva   c>  
.OPERva   c>   Calculating wake trajectory ...
 Calculating source influence matrix ...

 Solving BL system ...

 Side 1  free  transition at x/c =  0.2350   43
 Side 2  free  transition at x/c =  0.9935   72

   1   rms: 0.1524E+00   max: -.7174E+00   D at   43  1   RLX: 0.697
       a =  6.207      CL =  0.8038
      Cm = -0.0230     CD =  0.00897   =>   CDf =  0.00520    CDp =  0.00377

 Side 1  free  transition at x/c =  0.2110   43
 Side 2 forced transition at x/c =  1.0000   72

   2   rms: 0.6913E-01   max: 0.3982E+00   C at   72  2
       a =  6.207      CL =  0.8569
      Cm = -0.0288     CD =  0.00927   =>   CDf =  0.00532    CDp =  0.00395

 Side 1  free  transition at x/c =  0.1957   43
 Side 2  free  transition at x/c =  0.9912   70

   3   rms: 0.4086E-01   max: -.4469E+00   T at   70  2
       a =  6.207      CL =  0.8381
      Cm = -0.0245     CD =  0.00911   =>   CDf =  0.00543    CDp =  0.00368

 Side 1  free  transition at x/c =  0.2063   43
 Side 2 forced transition at x/c =  1.0000   71

   4   rms: 0.3073E-01   max: 0.2981E+00   D at   71  2
       a =  6.207      CL =  0.8583
      Cm = -0.0290     CD =  0.00914   =>   CDf =  0.00534    CDp =  0.00380

 Side 1  free  transition at x/c =  0.1985   43
 Side 2  free  transition at x/c =  0.9910   70

   5   rms: 0.3939E-01   max: -.4457E+00   T at   70  2
       a =  6.207      CL =  0.8382
      Cm = -0.0245     CD =  0.00911   =>   CDf =  0.00540    CDp =  0.00371

 Side 1  free  transition at x/c =  0.2026   43
 Side 2 forced transition at x/c =  1.0000   71

   6   rms: 0.2910E-01   max: 0.2941E+00   D at   71  2
       a =  6.207      CL =  0.8582
      Cm = -0.0290     CD =  0.00915   =>   CDf =  0.00536    CDp =  0.00380

 Side 1  free  transition at x/c =  0.1992   43
 Side 2  free  transition at x/c =  0.9910   70

   7   rms: 0.3888E-01   max: -.4454E+00   T at   70  2
       a =  6.207      CL =  0.8382
      Cm = -0.0245     CD =  0.00911   =>   CDf =  0.00539    CDp =  0.00372

 Side 1  free  transition at x/c =  0.2026   43
 Side 2 forced transition at x/c =  1.0000   71

   8   rms: 0.2912E-01   max: 0.2944E+00   D at   71  2
       a =  6.207      CL =  0.8582
      Cm = -0.0290     CD =  0.00915   =>   CDf =  0.00536    CDp =  0.00380

 Side 1  free  transition at x/c =  0.1992   43
 Side 2  free  transition at x/c =  0.9910   70

   9   rms: 0.3888E-01   max: -.4454E+00   T at   70  2
       a =  6.207      CL =  0.8382
      Cm = -0.0245     CD =  0.00911   =>   CDf =  0.00539    CDp =  0.00372

 Side 1  free  transition at x/c =  0.2026   43
 Side 2 forced transition at x/c =  1.0000   71

  10   rms: 0.2913E-01   max: 0.2945E+00   D at   71  2
       a =  6.207      CL =  0.8582
      Cm = -0.0290     CD =  0.00915   =>   CDf =  0.00536    CDp =  0.00380
 VISCAL:  Convergence failed

.OPERva   c>  
.OPERva   c>  
.OPERva   c>   Calculating wake trajectory ...
 Calculating source influence matrix ...

 Solving BL system ...

 Side 1  free  transition at x/c =  0.1992   43
 Side 2  free  transition at x/c =  0.9910   70

   1   rms: 0.1541E+00   max: -.1114E+01   D at   43  1   RLX: 0.449
       a =  7.034      CL =  0.8971
      Cm = -0.0287     CD =  0.00986   =>   CDf =  0.00539    CDp =  0.00448

 Side 1  free  transition at x/c =  0.1802   42
 Side 2  free  transition at x/c =  0.9999   71

   2   rms: 0.9273E-01   max: -.4266E+00   D at   43  1
       a =  7.034      CL =  0.9612
      Cm = -0.0319     CD =  0.01008   =>   CDf =  0.00542    CDp =  0.00466

 Side 1  free  transition at x/c =  0.1498   40
 Side 2 forced transition at x/c =  1.0000   70

   3   rms: 0.4526E-01   max: -.3869E+00   D at   70  2
       a =  7.034      CL =  0.9301
      Cm = -0.0253     CD =  0.00996   =>   CDf =  0.00564    CDp =  0.00432

 Side 1  free  transition at x/c =  0.1620   41
 Side 2 forced transition at x/c =  1.0000   70

   4   rms: 0.4190E-02   max: 0.5773E-01   C at   41  1
       a =  7.034      CL =  0.9291
      Cm = -0.0250     CD =  0.00987   =>   CDf =  0.00554    CDp =  0.00433

 Side 1  free  transition at x/c =  0.1607   41
 Side 2 forced transition at x/c =  1.0000   70

   5   rms: 0.1817E-03   max: 0.1626E-02   D at   63  2
       a =  7.034      CL =  0.9291
      Cm = -0.0250     CD =  0.00987   =>   CDf =  0.00555    CDp =  0.00433

 Side 1  free  transition at x/c =  0.1607   41
 Side 2 forced transition at x/c =  1.0000   70

   6   rms: 0.1093E-05   max: 0.8102E-05   D at   66  2
       a =  7.034      CL =  0.9291
      Cm = -0.0250     CD =  0.00987   =>   CDf =  0.00555    CDp =  0.00433
 plradd ia,ip,cpol           19          91  7.67205330E-03

 Point added to stored polar  1
 Save file unspecified or not available
 Dump file unspecified or not available

.OPERva   c>  
.OPERva   c>  
.OPERva   c>   Calculating wake trajectory ...
 Calculating source influence matrix ...

 Solving BL system ...

 Side 1  free  transition at x/c =  0.1607   41
 Side 2 forced transition at x/c =  1.0000   70

   1   rms: 0.1460E+00   max: 0.1555E+01   C at   41  1   RLX: 0.669
       a =  7.862      CL =  0.9759
      Cm = -0.0222     CD =  0.01042   =>   CDf =  0.00554    CDp =  0.00488

 Side 1  free  transition at x/c =  0.1297   39
 Side 2 forced transition at x/c =  1.0000   70

   2   rms: 0.4642E-01   max: -.3398E+00   D at   39  1
       a =  7.862      CL =  0.9969
      Cm = -0.0205     CD =  0.01091   =>   CDf =  0.00563    CDp =  0.00529

 Side 1  free  transition at x/c =  0.1174   39
 Side 2 forced transition at x/c =  1.0000   69

   3   rms: 0.3693E-02   max: 0.1965E-01   D at    2  2
       a =  7.862      CL =  0.9971
      Cm = -0.0205     CD =  0.01088   =>   CDf =  0.00576    CDp =  0.00512

 Side 1  free  transition at x/c =  0.1176   39
 Side 2 forced transition at x/c =  1.0000   69

   4   rms: 0.3938E-03   max: -.4288E-02   D at    4  1
       a =  7.862      CL =  0.9971
      Cm = -0.0205     CD =  0.01088   =>   CDf =  0.00576    CDp =  0.00512

 Side 1  free  transition at x/c =  0.1176   39
 Side 2 forced transition at x/c =  1.0000   69

   5   rms: 0.1054E-05   max: -.1537E-04   C at   39  1
       a =  7.862      CL =  0.9971
      Cm = -0.0205     CD =  0.01088   =>   CDf =  0.00576    CDp =  0.00512
 plradd ia,ip,cpol           20          92  5.90701448E-03

 Point added to stored polar  1
 Save file unspecified or not available
 Dump file unspecified or not available

.OPERva   c>  
.OPERva   c>  
.OPERva   c>   Calculating wake trajectory ...
 Calculating source influence matrix ...

 Solving BL system ...

 Side 1  free  transition at x/c =  0.1176   39
 Side 2 forced transition at x/c =  1.0000   69

   1   rms: 0.1598E+00   max: 0.1819E+01   C at   39  1   RLX: 0.461
       a =  8.690      CL =  1.0275
      Cm = -0.0184     CD =  0.01147   =>   CDf =  0.00576    CDp =  0.00571

 Side 1  free  transition at x/c =  0.0991   37
 Side 2 forced transition at x/c =  1.0000   69

   2   rms: 0.6772E-01   max: -.2912E+00   D at   37  1
       a =  8.690      CL =  1.0678
      Cm = -0.0166     CD =  0.01187   =>   CDf =  0.00578    CDp =  0.00609

 Side 1  free  transition at x/c =  0.0824   37
 Side 2 forced transition at x/c =  1.0000   68

   3   rms: 0.5537E-02   max: -.7257E-01   C at   37  1
       a =  8.690      CL =  1.0653
      Cm = -0.0162     CD =  0.01207   =>   CDf =  0.00594    CDp =  0.00613

 Side 1  free  transition at x/c =  0.0829   37
 Side 2 forced transition at x/c =  1.0000   68

   4   rms: 0.5008E-03   max: 0.5369E-02   C at   37  1
       a =  8.690      CL =  1.0652
      Cm = -0.0162     CD =  0.01208   =>   CDf =  0.00594    CDp =  0.00614

 Side 1  free  transition at x/c =  0.0828   37
 Side 2 forced transition at x/c =  1.0000   68

   5   rms: 0.9923E-06   max: -.7824E-05   C at   37  1
       a =  8.690      CL =  1.0652
      Cm = -0.0162     CD =  0.01208   =>   CDf =  0.00594    CDp =  0.00614
 plradd ia,ip,cpol           21          93  4.38237144E-03

 Point added to stored polar  1
 Save file unspecified or not available
 Dump file unspecified or not available

.OPERva   c>  
.OPERva   c>  
.OPERva   c>   Calculating wake trajectory ...
 Calculating source influence matrix ...

 Solving BL system ...

 Side 1  free  transition at x/c =  0.0828   37
 Side 2 forced transition at x/c =  1.0000   68

   1   rms: 0.1503E+00   max: 0.1447E+01   C at   37  1   RLX: 0.511
       a =  9.517      CL =  1.0998
      Cm = -0.0141     CD =  0.01276   =>   CDf =  0.00594    CDp =  0.00682

 Side 1  free  transition at x/c =  0.0697   36
 Side 2 forced transition at x/c =  1.0000   68

   2   rms: 0.7227E-01   max: -.4233E+00   D at   36  1
       a =  9.517      CL =  1.1340
      Cm = -0.0123     CD =  0.01351   =>   CDf =  0.00588    CDp =  0.00763

 Side 1  free  transition at x/c =  0.0595   36
 Side 2 forced transition at x/c =  1.0000   67

   3   rms: 0.1242E-01   max: 0.1694E+00   D at   36  1
       a =  9.517      CL =  1.1349
      Cm = -0.0125     CD =  0.01342   =>   CDf =  0.00609    CDp =  0.00733

 Side 1  free  transition at x/c =  0.0593   36
 Side 2 forced transition at x/c =  1.0000   67

   4   rms: 0.8329E-03   max: -.1221E-01   D at   36  1
       a =  9.517      CL =  1.1349
      Cm = -0.0125     CD =  0.01342   =>   CDf =  0.00607    CDp =  0.00735

 Side 1  free  transition at x/c =  0.0592   36
 Side 2 forced transition at x/c =  1.0000   67

   5   rms: 0.2551E-04   max: -.4662E-03   D at   36  1
       a =  9.517      CL =  1.1349
      Cm = -0.0125     CD =  0.01342   =>   CDf =  0.00607    CDp =  0.00735
 plradd ia,ip,cpol           22          94  4.38237144E-03

 Point added to stored polar  1
 Save file unspecified or not available
 Dump file unspecified or not available

.OPERva   c>  
.OPERva   c>  
.OPERva   c>   Calculating wake trajectory ...
 Calculating source influence matrix ...

 Solving BL system ...

 Side 1  free  transition at x/c =  0.0591   36
 Side 2 forced transition at x/c =  1.0000   67

   1   rms: 0.1421E+00   max: -.8037E+00   D at   36  1   RLX: 0.622
       a = 10.345      CL =  1.1770
      Cm = -0.0101     CD =  0.01450   =>   CDf =  0.00607    CDp =  0.00842

 Side 1  free  transition at x/c =  0.0492   34
 Side 2 forced transition at x/c =  1.0000   67

   2   rms: 0.5414E-01   max: -.4588E+00   D at   34  1
       a = 10.345      CL =  1.2085
      Cm = -0.0096     CD =  0.01467   =>   CDf =  0.00593    CDp =  0.00875

 Side 1  free  transition at x/c =  0.0462   35
 Side 2 forced transition at x/c =  1.0000   66

   3   rms: 0.5148E-02   max: -.7618E-01   D at   35  1
       a = 10.345      CL =  1.2066
      Cm = -0.0094     CD =  0.01481   =>   CDf =  0.00609    CDp =  0.00871

 Side 1  free  transition at x/c =  0.0456   35
 Side 2 forced transition at x/c =  1.0000   66

   4   rms: 0.6045E-03   max: -.7827E-02   D at   35  1
       a = 10.345      CL =  1.2066
      Cm = -0.0094     CD =  0.01481   =>   CDf =  0.00610    CDp =  0.00870

 Side 1  free  transition at x/c =  0.0455   35
 Side 2 forced transition at x/c =  1.0000   66

   5   rms: 0.6476E-05   max: -.1037E-03   D at   35  1
       a = 10.345      CL =  1.2066
      Cm = -0.0094     CD =  0.01481   =>   CDf =  0.00611    CDp =  0.00870
 plradd ia,ip,cpol           23          95  3.09085380E-03

 Point added to stored polar  1
 Save file unspecified or not available
 Dump file unspecified or not available

.OPERva   c>  
.OPERva   c>  
.OPERva   c>   Calculating wake trajectory ...
 Calculating source influence matrix ...

 Solving BL system ...

 Side 1  free  transition at x/c =  0.0455   35
 Side 2 forced transition at x/c =  1.0000   66

   1   rms: 0.1395E+00   max: -.8136E+00   D at   35  1   RLX: 0.615
       a = 11.172      CL =  1.2471
      Cm = -0.0070     CD =  0.01601   =>   CDf =  0.00611    CDp =  0.00990

 Side 1  free  transition at x/c =  0.0393   34
 Side 2 forced transition at x/c =  1.0000   66

   2   rms: 0.5732E-01   max: -.1033E+00   C at   66  2
       a = 11.172      CL =  1.2742
      Cm = -0.0059     CD =  0.01655   =>   CDf =  0.00591    CDp =  0.01065

 Side 1  free  transition at x/c =  0.0364   34
 Side 2 forced transition at x/c =  1.0000   65

   3   rms: 0.2454E-01   max: -.3257E+00   D at   34  1
       a = 11.172      CL =  1.2770
      Cm = -0.0063     CD =  0.01624   =>   CDf =  0.00603    CDp =  0.01020

 Side 1  free  transition at x/c =  0.0372   34
 Side 2 forced transition at x/c =  1.0000   65

   4   rms: 0.3030E-02   max: 0.4237E-01   C at   34  1
       a = 11.172      CL =  1.2765
      Cm = -0.0062     CD =  0.01629   =>   CDf =  0.00606    CDp =  0.01023

 Side 1  free  transition at x/c =  0.0370   34
 Side 2 forced transition at x/c =  1.0000   65

   5   rms: 0.4230E-04   max: -.6170E-03   D at   34  1
       a = 11.172      CL =  1.2765
      Cm = -0.0062     CD =  0.01629   =>   CDf =  0.00606    CDp =  0.01023
 plradd ia,ip,cpol           24          96  3.09085380E-03

 Point added to stored polar  1
 Save file unspecified or not available
 Dump file unspecified or not available

.OPERva   c>  
.OPERva   c>  
.OPERva   c>   Calculating wake trajectory ...
 Calculating source influence matrix ...

 Solving BL system ...

 Side 1  free  transition at x/c =  0.0370   34
 Side 2 forced transition at x/c =  1.0000   65

   1   rms: 0.1229E+00   max: -.4362E+00   D at   34  1
       a = 12.000      CL =  1.3464
      Cm = -0.0032     CD =  0.01776   =>   CDf =  0.00582    CDp =  0.01193

 Side 1  free  transition at x/c =  0.0316   34
 Side 2 forced transition at x/c =  1.0000   64

   2   rms: 0.2933E-01   max: -.3116E+00   D at   34  1
       a = 12.000      CL =  1.3422
      Cm = -0.0027     CD =  0.01787   =>   CDf =  0.00593    CDp =  0.01194

 Side 1  free  transition at x/c =  0.0315   34
 Side 2 forced transition at x/c =  1.0000   64
 idif Ue xi dudx           1  7.94536322E-02  5.18524647E-03   15.323019    
 Uenew xinew           2  6.02793261E-05  3.93390656E-06

   3   rms: 0.3554E-02   max: -.2516E-01   D at   35  1
       a = 12.000      CL =  1.3408
      Cm = -0.0025     CD =  0.01800   =>   CDf =  0.00625    CDp =  0.01175

 Side 1  free  transition at x/c =  0.0313   33
 Side 2 forced transition at x/c =  1.0000   65

   4   rms: 0.3741E-02   max: -.6613E-01   T at    2  2
       a = 12.000      CL =  1.3407
      Cm = -0.0025     CD =  0.01800   =>   CDf =  0.00599    CDp =  0.01201

 Side 1  free  transition at x/c =  0.0313   33
 Side 2 forced transition at x/c =  1.0000   65

   5   rms: 0.1083E-03   max: 0.1227E-02   D at    4  2
       a = 12.000      CL =  1.3407
      Cm = -0.0025     CD =  0.01800   =>   CDf =  0.00599    CDp =  0.01201

 Side 1  free  transition at x/c =  0.0313   33
 Side 2 forced transition at x/c =  1.0000   65

   6   rms: 0.1200E-05   max: 0.1310E-04   D at    2  2
       a = 12.000      CL =  1.3407
      Cm = -0.0025     CD =  0.01800   =>   CDf =  0.00599    CDp =  0.01201
 plradd ia,ip,cpol           25          96  2.02838518E-03

 Point added to stored polar  1
 Save file unspecified or not available
 Dump file unspecified or not available

.OPERva   c>  
.OPERva   c>  
.OPERva   c>  
        airfoil                    Re           Mach       Ncrit  XtripT  XtripB     file
       ------------------------  ------------  ----------  -----  ------  ------    -------------------
 >  1  NACA 1213                 1.000e6       0.000        9.00   1.000   1.000    

Enter polar output filename   s>  
.OPERva   c>  
 ==============================================================
 Polar  1
  
       XFOIL         Version 6.99
  
 Calculated polar for: NACA 1213                                       
  
 1 1 Reynolds number fixed          Mach number fixed         
  
 xtrf =   1.000 (top)        1.000 (bottom)  
 Mach =   0.000     Re =     1.000 e 6     Ncrit =   9.000
  
   alpha    CL        CD       CDp       CM     Top_Xtr  Bot_Xtr
  ------ -------- --------- --------- -------- -------- --------
 -12.000  -1.1580   0.01920   0.01382  -0.0289   1.0000   0.0208
 -11.172  -1.0955   0.01761   0.01208  -0.0243   1.0000   0.0224
 -10.345  -1.0392   0.01592   0.01029  -0.0182   1.0000   0.0244
  -9.517  -0.9790   0.01482   0.00908  -0.0124   1.0000   0.0265
  -6.207  -0.5663   0.01010   0.00435  -0.0239   0.9774   0.0531
  -5.379  -0.4680   0.00924   0.00357  -0.0250   0.9588   0.0698
  -4.552  -0.3800   0.00855   0.00293  -0.0236   0.9283   0.0956
  -3.724  -0.2933   0.00788   0.00238  -0.0220   0.8847   0.1441
  -2.897  -0.2092   0.00693   0.00180  -0.0202   0.8236   0.2879
  -1.241  -0.0332   0.00601   0.00133  -0.0180   0.6999   0.5476
  -0.414   0.0563   0.00588   0.00127  -0.0170   0.6323   0.6468
   0.414   0.1451   0.00585   0.00132  -0.0159   0.5626   0.7477
   1.241   0.2330   0.00595   0.00147  -0.0144   0.4925   0.8393
   2.069   0.3214   0.00628   0.00170  -0.0131   0.4235   0.8976
   2.897   0.4091   0.00675   0.00200  -0.0116   0.3595   0.9423
   3.724   0.5027   0.00733   0.00238  -0.0115   0.3067   0.9716
   4.552   0.6136   0.00793   0.00281  -0.0155   0.2669   0.9851
   5.379   0.7292   0.00853   0.00328  -0.0207   0.2350   0.9935
   7.034   0.9291   0.00987   0.00433  -0.0250   0.1607   1.0000
   7.862   0.9971   0.01088   0.00512  -0.0205   0.1176   1.0000
   8.690   1.0652   0.01208   0.00614  -0.0162   0.0828   1.0000
   9.517   1.1349   0.01342   0.00735  -0.0125   0.0592   1.0000
  10.345   1.2066   0.01481   0.00870  -0.0094   0.0455   1.0000
  11.172   1.2765   0.01629   0.01023  -0.0062   0.0370   1.0000
  12.000   1.3407   0.01800   0.01201  -0.0025   0.0313   1.0000

.OPERva   c>  
 XFOIL   c>  